
#======================================================================
# CRYSTAL DATA
#----------------------------------------------------------------------
data_VESTA_phase_1

_chemical_name_common                  'CAU-21-ODB-build-PBE-CellOptimized    '
_cell_length_a                         16.539568
_cell_length_b                         16.539568
_cell_length_c                         23.559404
_cell_angle_alpha                      90.000000
_cell_angle_beta                       90.000000
_cell_angle_gamma                      90.000000
_cell_volume                           6444.847236
_space_group_name_H-M_alt              'P 1'
_space_group_IT_number                 1

loop_
_space_group_symop_operation_xyz
   'x, y, z'

loop_
   _atom_site_label
   _atom_site_occupancy
   _atom_site_fract_x
   _atom_site_fract_y
   _atom_site_fract_z
   _atom_site_adp_type
   _atom_site_U_iso_or_equiv
   _atom_site_type_symbol
   O1         1.0     0.338312     0.707587     0.077422    Uiso  ? O
   O2         1.0     0.661688     0.292413     0.077422    Uiso  ? O
   O3         1.0     0.292413     0.338312     0.077422    Uiso  ? O
   O4         1.0     0.707587     0.661688     0.077422    Uiso  ? O
   O5         1.0     0.661688     0.707587     0.922578    Uiso  ? O
   O6         1.0     0.338312     0.292413     0.922578    Uiso  ? O
   O7         1.0     0.707587     0.338312     0.922578    Uiso  ? O
   O8         1.0     0.292413     0.661688     0.922578    Uiso  ? O
   O9         1.0     0.838312     0.207587     0.577422    Uiso  ? O
   O10        1.0     0.161688     0.792413     0.577422    Uiso  ? O
   O11        1.0     0.792413     0.838312     0.577422    Uiso  ? O
   O12        1.0     0.207587     0.161688     0.577422    Uiso  ? O
   O13        1.0     0.161688     0.207587     0.422578    Uiso  ? O
   O14        1.0     0.838312     0.792413     0.422578    Uiso  ? O
   O15        1.0     0.207587     0.838312     0.422578    Uiso  ? O
   O16        1.0     0.792413     0.161688     0.422578    Uiso  ? O
   O17        1.0     0.462151     0.766548     0.078108    Uiso  ? O
   O18        1.0     0.537849     0.233452     0.078108    Uiso  ? O
   O19        1.0     0.233452     0.462151     0.078108    Uiso  ? O
   O20        1.0     0.766548     0.537849     0.078108    Uiso  ? O
   O21        1.0     0.537849     0.766548     0.921892    Uiso  ? O
   O22        1.0     0.462151     0.233452     0.921892    Uiso  ? O
   O23        1.0     0.766548     0.462151     0.921892    Uiso  ? O
   O24        1.0     0.233452     0.537849     0.921892    Uiso  ? O
   O25        1.0     0.962151     0.266548     0.578108    Uiso  ? O
   O26        1.0     0.037849     0.733452     0.578108    Uiso  ? O
   O27        1.0     0.733452     0.962151     0.578108    Uiso  ? O
   O28        1.0     0.266548     0.037849     0.578108    Uiso  ? O
   O29        1.0     0.037849     0.266548     0.421892    Uiso  ? O
   O30        1.0     0.962151     0.733452     0.421892    Uiso  ? O
   O31        1.0     0.266548     0.962151     0.421892    Uiso  ? O
   O32        1.0     0.733452     0.037849     0.421892    Uiso  ? O
   O33        1.0     0.429103     0.853262     0.978120    Uiso  ? O
   O34        1.0     0.570897     0.146738     0.978120    Uiso  ? O
   O35        1.0     0.146738     0.429103     0.978120    Uiso  ? O
   O36        1.0     0.853262     0.570897     0.978120    Uiso  ? O
   O37        1.0     0.570897     0.853262     0.021880    Uiso  ? O
   O38        1.0     0.429103     0.146738     0.021880    Uiso  ? O
   O39        1.0     0.853262     0.429103     0.021880    Uiso  ? O
   O40        1.0     0.146738     0.570897     0.021880    Uiso  ? O
   O41        1.0     0.929103     0.353262     0.478120    Uiso  ? O
   O42        1.0     0.070897     0.646738     0.478120    Uiso  ? O
   O43        1.0     0.646738     0.929103     0.478120    Uiso  ? O
   O44        1.0     0.353262     0.070897     0.478120    Uiso  ? O
   O45        1.0     0.070897     0.353262     0.521880    Uiso  ? O
   O46        1.0     0.929103     0.646738     0.521880    Uiso  ? O
   O47        1.0     0.353262     0.929103     0.521880    Uiso  ? O
   O48        1.0     0.646738     0.070897     0.521880    Uiso  ? O
   O49        1.0     0.303966     0.797623     0.982077    Uiso  ? O
   O50        1.0     0.696034     0.202377     0.982077    Uiso  ? O
   O51        1.0     0.202377     0.303966     0.982077    Uiso  ? O
   O52        1.0     0.797623     0.696034     0.982077    Uiso  ? O
   O53        1.0     0.696034     0.797623     0.017923    Uiso  ? O
   O54        1.0     0.303966     0.202377     0.017923    Uiso  ? O
   O55        1.0     0.797623     0.303966     0.017923    Uiso  ? O
   O56        1.0     0.202377     0.696034     0.017923    Uiso  ? O
   O57        1.0     0.803966     0.297623     0.482077    Uiso  ? O
   O58        1.0     0.196034     0.702377     0.482077    Uiso  ? O
   O59        1.0     0.702377     0.803966     0.482077    Uiso  ? O
   O60        1.0     0.297623     0.196034     0.482077    Uiso  ? O
   O61        1.0     0.196034     0.297623     0.517923    Uiso  ? O
   O62        1.0     0.803966     0.702377     0.517923    Uiso  ? O
   O63        1.0     0.297623     0.803966     0.517923    Uiso  ? O
   O64        1.0     0.702377     0.196034     0.517923    Uiso  ? O
   O65        1.0     0.423931     0.687898     0.981979    Uiso  ? O
   O66        1.0     0.576069     0.312102     0.981979    Uiso  ? O
   O67        1.0     0.312102     0.423931     0.981979    Uiso  ? O
   O68        1.0     0.687898     0.576069     0.981979    Uiso  ? O
   O69        1.0     0.576069     0.687898     0.018021    Uiso  ? O
   O70        1.0     0.423931     0.312102     0.018021    Uiso  ? O
   O71        1.0     0.687898     0.423931     0.018021    Uiso  ? O
   O72        1.0     0.312102     0.576069     0.018021    Uiso  ? O
   O73        1.0     0.923931     0.187898     0.481979    Uiso  ? O
   O74        1.0     0.076069     0.812102     0.481979    Uiso  ? O
   O75        1.0     0.812102     0.923931     0.481979    Uiso  ? O
   O76        1.0     0.187898     0.076069     0.481979    Uiso  ? O
   O77        1.0     0.076069     0.187898     0.518021    Uiso  ? O
   O78        1.0     0.923931     0.812102     0.518021    Uiso  ? O
   O79        1.0     0.187898     0.923931     0.518021    Uiso  ? O
   O80        1.0     0.812102     0.076069     0.518021    Uiso  ? O
   O81        1.0     0.720517     0.611557     0.342120    Uiso  ? O
   O82        1.0     0.279483     0.388443     0.342120    Uiso  ? O
   O83        1.0     0.388443     0.720517     0.342120    Uiso  ? O
   O84        1.0     0.611557     0.279483     0.342120    Uiso  ? O
   O85        1.0     0.279483     0.611557     0.657880    Uiso  ? O
   O86        1.0     0.720517     0.388443     0.657880    Uiso  ? O
   O87        1.0     0.611557     0.720517     0.657880    Uiso  ? O
   O88        1.0     0.388443     0.279483     0.657880    Uiso  ? O
   O89        1.0     0.220517     0.111557     0.842120    Uiso  ? O
   O90        1.0     0.779483     0.888443     0.842120    Uiso  ? O
   O91        1.0     0.888443     0.220517     0.842120    Uiso  ? O
   O92        1.0     0.111557     0.779483     0.842120    Uiso  ? O
   O93        1.0     0.779483     0.111557     0.157880    Uiso  ? O
   O94        1.0     0.220517     0.888443     0.157880    Uiso  ? O
   O95        1.0     0.111557     0.220517     0.157880    Uiso  ? O
   O96        1.0     0.888443     0.779483     0.157880    Uiso  ? O
   C1         1.0     0.395256     0.725890     0.284106    Uiso  ? C
   C2         1.0     0.604744     0.274111     0.284106    Uiso  ? C
   C3         1.0     0.274111     0.395256     0.284106    Uiso  ? C
   C4         1.0     0.725890     0.604744     0.284106    Uiso  ? C
   C5         1.0     0.604744     0.725890     0.715894    Uiso  ? C
   C6         1.0     0.395256     0.274111     0.715894    Uiso  ? C
   C7         1.0     0.725890     0.395256     0.715894    Uiso  ? C
   C8         1.0     0.274111     0.604744     0.715894    Uiso  ? C
   C9         1.0     0.895256     0.225889     0.784106    Uiso  ? C
   C10        1.0     0.104744     0.774110     0.784106    Uiso  ? C
   C11        1.0     0.774110     0.895256     0.784106    Uiso  ? C
   C12        1.0     0.225889     0.104744     0.784106    Uiso  ? C
   C13        1.0     0.104744     0.225889     0.215894    Uiso  ? C
   C14        1.0     0.895256     0.774110     0.215894    Uiso  ? C
   C15        1.0     0.225889     0.895256     0.215894    Uiso  ? C
   C16        1.0     0.774110     0.104744     0.215894    Uiso  ? C
   C17        1.0     0.335335     0.686325     0.252509    Uiso  ? C
   C18        1.0     0.664665     0.313675     0.252509    Uiso  ? C
   C19        1.0     0.313675     0.335335     0.252509    Uiso  ? C
   C20        1.0     0.686325     0.664665     0.252509    Uiso  ? C
   C21        1.0     0.664665     0.686325     0.747491    Uiso  ? C
   C22        1.0     0.335335     0.313675     0.747491    Uiso  ? C
   C23        1.0     0.686325     0.335335     0.747491    Uiso  ? C
   C24        1.0     0.313675     0.664665     0.747491    Uiso  ? C
   C25        1.0     0.835335     0.186325     0.752509    Uiso  ? C
   C26        1.0     0.164665     0.813675     0.752509    Uiso  ? C
   C27        1.0     0.813675     0.835335     0.752509    Uiso  ? C
   C28        1.0     0.186325     0.164665     0.752509    Uiso  ? C
   C29        1.0     0.164665     0.186325     0.247491    Uiso  ? C
   C30        1.0     0.835335     0.813675     0.247491    Uiso  ? C
   C31        1.0     0.186325     0.835335     0.247491    Uiso  ? C
   C32        1.0     0.813675     0.164665     0.247491    Uiso  ? C
   C33        1.0     0.337273     0.690408     0.193786    Uiso  ? C
   C34        1.0     0.662727     0.309592     0.193786    Uiso  ? C
   C35        1.0     0.309592     0.337273     0.193786    Uiso  ? C
   C36        1.0     0.690408     0.662727     0.193786    Uiso  ? C
   C37        1.0     0.662727     0.690408     0.806214    Uiso  ? C
   C38        1.0     0.337273     0.309592     0.806214    Uiso  ? C
   C39        1.0     0.690408     0.337273     0.806214    Uiso  ? C
   C40        1.0     0.309592     0.662727     0.806214    Uiso  ? C
   C41        1.0     0.837273     0.190408     0.693786    Uiso  ? C
   C42        1.0     0.162727     0.809592     0.693786    Uiso  ? C
   C43        1.0     0.809592     0.837273     0.693786    Uiso  ? C
   C44        1.0     0.190408     0.162727     0.693786    Uiso  ? C
   C45        1.0     0.162727     0.190408     0.306214    Uiso  ? C
   C46        1.0     0.837273     0.809592     0.306214    Uiso  ? C
   C47        1.0     0.190408     0.837273     0.306214    Uiso  ? C
   C48        1.0     0.809592     0.162727     0.306214    Uiso  ? C
   C49        1.0     0.399250     0.732619     0.165617    Uiso  ? C
   C50        1.0     0.600751     0.267381     0.165617    Uiso  ? C
   C51        1.0     0.267381     0.399250     0.165617    Uiso  ? C
   C52        1.0     0.732619     0.600751     0.165617    Uiso  ? C
   C53        1.0     0.600751     0.732619     0.834383    Uiso  ? C
   C54        1.0     0.399250     0.267381     0.834383    Uiso  ? C
   C55        1.0     0.732619     0.399250     0.834383    Uiso  ? C
   C56        1.0     0.267381     0.600751     0.834383    Uiso  ? C
   C57        1.0     0.899249     0.232619     0.665617    Uiso  ? C
   C58        1.0     0.100750     0.767381     0.665617    Uiso  ? C
   C59        1.0     0.767381     0.899249     0.665617    Uiso  ? C
   C60        1.0     0.232619     0.100750     0.665617    Uiso  ? C
   C61        1.0     0.100750     0.232619     0.334383    Uiso  ? C
   C62        1.0     0.899249     0.767381     0.334383    Uiso  ? C
   C63        1.0     0.232619     0.899249     0.334383    Uiso  ? C
   C64        1.0     0.767381     0.100750     0.334383    Uiso  ? C
   C65        1.0     0.459184     0.771096     0.197771    Uiso  ? C
   C66        1.0     0.540816     0.228904     0.197771    Uiso  ? C
   C67        1.0     0.228904     0.459184     0.197771    Uiso  ? C
   C68        1.0     0.771096     0.540816     0.197771    Uiso  ? C
   C69        1.0     0.540816     0.771096     0.802229    Uiso  ? C
   C70        1.0     0.459184     0.228904     0.802229    Uiso  ? C
   C71        1.0     0.771096     0.459184     0.802229    Uiso  ? C
   C72        1.0     0.228904     0.540816     0.802229    Uiso  ? C
   C73        1.0     0.959184     0.271096     0.697771    Uiso  ? C
   C74        1.0     0.040816     0.728904     0.697771    Uiso  ? C
   C75        1.0     0.728904     0.959184     0.697771    Uiso  ? C
   C76        1.0     0.271096     0.040816     0.697771    Uiso  ? C
   C77        1.0     0.040816     0.271096     0.302229    Uiso  ? C
   C78        1.0     0.959184     0.728904     0.302229    Uiso  ? C
   C79        1.0     0.271096     0.959184     0.302229    Uiso  ? C
   C80        1.0     0.728904     0.040816     0.302229    Uiso  ? C
   C81        1.0     0.457412     0.768476     0.256782    Uiso  ? C
   C82        1.0     0.542588     0.231524     0.256782    Uiso  ? C
   C83        1.0     0.231524     0.457412     0.256782    Uiso  ? C
   C84        1.0     0.768476     0.542588     0.256782    Uiso  ? C
   C85        1.0     0.542588     0.768476     0.743218    Uiso  ? C
   C86        1.0     0.457412     0.231524     0.743218    Uiso  ? C
   C87        1.0     0.768476     0.457412     0.743218    Uiso  ? C
   C88        1.0     0.231524     0.542588     0.743218    Uiso  ? C
   C89        1.0     0.957412     0.268476     0.756782    Uiso  ? C
   C90        1.0     0.042588     0.731524     0.756782    Uiso  ? C
   C91        1.0     0.731524     0.957412     0.756782    Uiso  ? C
   C92        1.0     0.268476     0.042588     0.756782    Uiso  ? C
   C93        1.0     0.042588     0.268476     0.243218    Uiso  ? C
   C94        1.0     0.957412     0.731524     0.243218    Uiso  ? C
   C95        1.0     0.268476     0.957412     0.243218    Uiso  ? C
   C96        1.0     0.731524     0.042588     0.243218    Uiso  ? C
   C97        1.0     0.400325     0.735939     0.102717    Uiso  ? C
   C98        1.0     0.599675     0.264061     0.102717    Uiso  ? C
   C99        1.0     0.264061     0.400325     0.102717    Uiso  ? C
   C100       1.0     0.735939     0.599675     0.102717    Uiso  ? C
   C101       1.0     0.599675     0.735939     0.897283    Uiso  ? C
   C102       1.0     0.400325     0.264061     0.897283    Uiso  ? C
   C103       1.0     0.735939     0.400325     0.897283    Uiso  ? C
   C104       1.0     0.264061     0.599675     0.897283    Uiso  ? C
   C105       1.0     0.900325     0.235939     0.602717    Uiso  ? C
   C106       1.0     0.099675     0.764061     0.602717    Uiso  ? C
   C107       1.0     0.764061     0.900325     0.602717    Uiso  ? C
   C108       1.0     0.235939     0.099675     0.602717    Uiso  ? C
   C109       1.0     0.099675     0.235939     0.397283    Uiso  ? C
   C110       1.0     0.900325     0.764061     0.397283    Uiso  ? C
   C111       1.0     0.235939     0.900325     0.397283    Uiso  ? C
   C112       1.0     0.764061     0.099675     0.397283    Uiso  ? C
   C113       1.0     0.865282     0.491939     0.425420    Uiso  ? C
   C114       1.0     0.134718     0.508061     0.425420    Uiso  ? C
   C115       1.0     0.508061     0.865282     0.425420    Uiso  ? C
   C116       1.0     0.491939     0.134718     0.425420    Uiso  ? C
   C117       1.0     0.134718     0.491939     0.574580    Uiso  ? C
   C118       1.0     0.865282     0.508061     0.574580    Uiso  ? C
   C119       1.0     0.491939     0.865282     0.574580    Uiso  ? C
   C120       1.0     0.508061     0.134718     0.574580    Uiso  ? C
   C121       1.0     0.365283     0.991939     0.925420    Uiso  ? C
   C122       1.0     0.634718     0.008061     0.925420    Uiso  ? C
   C123       1.0     0.008061     0.365283     0.925420    Uiso  ? C
   C124       1.0     0.991939     0.634718     0.925420    Uiso  ? C
   C125       1.0     0.634718     0.991939     0.074580    Uiso  ? C
   C126       1.0     0.365283     0.008061     0.074580    Uiso  ? C
   C127       1.0     0.991939     0.365283     0.074580    Uiso  ? C
   C128       1.0     0.008061     0.634718     0.074580    Uiso  ? C
   C129       1.0     0.832868     0.555265     0.393855    Uiso  ? C
   C130       1.0     0.167132     0.444735     0.393855    Uiso  ? C
   C131       1.0     0.444735     0.832868     0.393855    Uiso  ? C
   C132       1.0     0.555265     0.167132     0.393855    Uiso  ? C
   C133       1.0     0.167132     0.555265     0.606145    Uiso  ? C
   C134       1.0     0.832868     0.444735     0.606145    Uiso  ? C
   C135       1.0     0.555265     0.832868     0.606145    Uiso  ? C
   C136       1.0     0.444735     0.167132     0.606145    Uiso  ? C
   C137       1.0     0.332868     0.055265     0.893855    Uiso  ? C
   C138       1.0     0.667132     0.944735     0.893855    Uiso  ? C
   C139       1.0     0.944735     0.332868     0.893855    Uiso  ? C
   C140       1.0     0.055265     0.667132     0.893855    Uiso  ? C
   C141       1.0     0.667132     0.055265     0.106145    Uiso  ? C
   C142       1.0     0.332868     0.944735     0.106145    Uiso  ? C
   C143       1.0     0.055265     0.332868     0.106145    Uiso  ? C
   C144       1.0     0.944735     0.667132     0.106145    Uiso  ? C
   C145       1.0     0.753487     0.549045     0.374435    Uiso  ? C
   C146       1.0     0.246513     0.450955     0.374435    Uiso  ? C
   C147       1.0     0.450955     0.753487     0.374435    Uiso  ? C
   C148       1.0     0.549045     0.246513     0.374435    Uiso  ? C
   C149       1.0     0.246513     0.549045     0.625565    Uiso  ? C
   C150       1.0     0.753487     0.450955     0.625565    Uiso  ? C
   C151       1.0     0.549045     0.753487     0.625565    Uiso  ? C
   C152       1.0     0.450955     0.246513     0.625565    Uiso  ? C
   C153       1.0     0.253487     0.049045     0.874435    Uiso  ? C
   C154       1.0     0.746513     0.950955     0.874435    Uiso  ? C
   C155       1.0     0.950955     0.253487     0.874435    Uiso  ? C
   C156       1.0     0.049045     0.746513     0.874435    Uiso  ? C
   C157       1.0     0.746513     0.049045     0.125565    Uiso  ? C
   C158       1.0     0.253487     0.950955     0.125565    Uiso  ? C
   C159       1.0     0.049045     0.253487     0.125565    Uiso  ? C
   C160       1.0     0.950955     0.746513     0.125565    Uiso  ? C
   C161       1.0     0.705357     0.482121     0.386901    Uiso  ? C
   C162       1.0     0.294643     0.517879     0.386901    Uiso  ? C
   C163       1.0     0.517879     0.705357     0.386901    Uiso  ? C
   C164       1.0     0.482121     0.294643     0.386901    Uiso  ? C
   C165       1.0     0.294643     0.482121     0.613099    Uiso  ? C
   C166       1.0     0.705357     0.517879     0.613099    Uiso  ? C
   C167       1.0     0.482121     0.705357     0.613099    Uiso  ? C
   C168       1.0     0.517879     0.294643     0.613099    Uiso  ? C
   C169       1.0     0.205357     0.982121     0.886901    Uiso  ? C
   C170       1.0     0.794643     0.017879     0.886901    Uiso  ? C
   C171       1.0     0.017879     0.205357     0.886901    Uiso  ? C
   C172       1.0     0.982121     0.794643     0.886901    Uiso  ? C
   C173       1.0     0.794643     0.982121     0.113099    Uiso  ? C
   C174       1.0     0.205357     0.017879     0.113099    Uiso  ? C
   C175       1.0     0.982121     0.205357     0.113099    Uiso  ? C
   C176       1.0     0.017879     0.794643     0.113099    Uiso  ? C
   C177       1.0     0.237965     0.919419     0.918839    Uiso  ? C
   C178       1.0     0.762035     0.080581     0.918839    Uiso  ? C
   C179       1.0     0.080581     0.237965     0.918839    Uiso  ? C
   C180       1.0     0.919419     0.762035     0.918839    Uiso  ? C
   C181       1.0     0.762035     0.919419     0.081161    Uiso  ? C
   C182       1.0     0.237965     0.080581     0.081161    Uiso  ? C
   C183       1.0     0.919419     0.237965     0.081161    Uiso  ? C
   C184       1.0     0.080581     0.762035     0.081161    Uiso  ? C
   C185       1.0     0.737965     0.419419     0.418839    Uiso  ? C
   C186       1.0     0.262035     0.580581     0.418839    Uiso  ? C
   C187       1.0     0.580581     0.737965     0.418839    Uiso  ? C
   C188       1.0     0.419419     0.262035     0.418839    Uiso  ? C
   C189       1.0     0.262035     0.419419     0.581161    Uiso  ? C
   C190       1.0     0.737965     0.580581     0.581161    Uiso  ? C
   C191       1.0     0.419419     0.737965     0.581161    Uiso  ? C
   C192       1.0     0.580581     0.262035     0.581161    Uiso  ? C
   C193       1.0     0.318325     0.923652     0.937643    Uiso  ? C
   C194       1.0     0.681675     0.076348     0.937643    Uiso  ? C
   C195       1.0     0.076348     0.318325     0.937643    Uiso  ? C
   C196       1.0     0.923652     0.681675     0.937643    Uiso  ? C
   C197       1.0     0.681675     0.923652     0.062357    Uiso  ? C
   C198       1.0     0.318325     0.076348     0.062357    Uiso  ? C
   C199       1.0     0.923652     0.318325     0.062357    Uiso  ? C
   C200       1.0     0.076348     0.681675     0.062357    Uiso  ? C
   C201       1.0     0.818325     0.423652     0.437643    Uiso  ? C
   C202       1.0     0.181675     0.576348     0.437643    Uiso  ? C
   C203       1.0     0.576348     0.818325     0.437643    Uiso  ? C
   C204       1.0     0.423652     0.181675     0.437643    Uiso  ? C
   C205       1.0     0.181675     0.423652     0.562357    Uiso  ? C
   C206       1.0     0.818325     0.576348     0.562357    Uiso  ? C
   C207       1.0     0.423652     0.818325     0.562357    Uiso  ? C
   C208       1.0     0.576348     0.181675     0.562357    Uiso  ? C
   C209       1.0     0.353206     0.853262     0.968413    Uiso  ? C
   C210       1.0     0.646794     0.146738     0.968413    Uiso  ? C
   C211       1.0     0.146738     0.353206     0.968413    Uiso  ? C
   C212       1.0     0.853262     0.646794     0.968413    Uiso  ? C
   C213       1.0     0.646794     0.853262     0.031587    Uiso  ? C
   C214       1.0     0.353206     0.146738     0.031587    Uiso  ? C
   C215       1.0     0.853262     0.353206     0.031587    Uiso  ? C
   C216       1.0     0.146738     0.646794     0.031587    Uiso  ? C
   C217       1.0     0.853206     0.353262     0.468413    Uiso  ? C
   C218       1.0     0.146794     0.646738     0.468413    Uiso  ? C
   C219       1.0     0.646738     0.853206     0.468413    Uiso  ? C
   C220       1.0     0.353262     0.146794     0.468413    Uiso  ? C
   C221       1.0     0.146794     0.353262     0.531587    Uiso  ? C
   C222       1.0     0.853206     0.646738     0.531587    Uiso  ? C
   C223       1.0     0.353262     0.853206     0.531587    Uiso  ? C
   C224       1.0     0.646738     0.146794     0.531587    Uiso  ? C
   H1         1.0     0.927260     0.494977     0.440823    Uiso  ? H
   H2         1.0     0.072740     0.505023     0.440823    Uiso  ? H
   H3         1.0     0.505023     0.927260     0.440823    Uiso  ? H
   H4         1.0     0.494977     0.072740     0.440823    Uiso  ? H
   H5         1.0     0.072740     0.494977     0.559177    Uiso  ? H
   H6         1.0     0.927260     0.505023     0.559177    Uiso  ? H
   H7         1.0     0.494977     0.927260     0.559177    Uiso  ? H
   H8         1.0     0.505023     0.072740     0.559177    Uiso  ? H
   H9         1.0     0.427260     0.994977     0.940823    Uiso  ? H
   H10        1.0     0.572740     0.005023     0.940823    Uiso  ? H
   H11        1.0     0.005023     0.427260     0.940823    Uiso  ? H
   H12        1.0     0.994977     0.572740     0.940823    Uiso  ? H
   H13        1.0     0.572740     0.994977     0.059177    Uiso  ? H
   H14        1.0     0.427260     0.005023     0.059177    Uiso  ? H
   H15        1.0     0.994977     0.427260     0.059177    Uiso  ? H
   H16        1.0     0.005023     0.572740     0.059177    Uiso  ? H
   H17        1.0     0.288097     0.653381     0.274947    Uiso  ? H
   H18        1.0     0.711903     0.346619     0.274947    Uiso  ? H
   H19        1.0     0.346619     0.288097     0.274947    Uiso  ? H
   H20        1.0     0.653381     0.711903     0.274947    Uiso  ? H
   H21        1.0     0.711903     0.653381     0.725053    Uiso  ? H
   H22        1.0     0.288097     0.346619     0.725053    Uiso  ? H
   H23        1.0     0.653381     0.288097     0.725053    Uiso  ? H
   H24        1.0     0.346619     0.711903     0.725053    Uiso  ? H
   H25        1.0     0.788097     0.153381     0.774947    Uiso  ? H
   H26        1.0     0.211903     0.846619     0.774947    Uiso  ? H
   H27        1.0     0.846619     0.788097     0.774947    Uiso  ? H
   H28        1.0     0.153381     0.211903     0.774947    Uiso  ? H
   H29        1.0     0.211903     0.153381     0.225053    Uiso  ? H
   H30        1.0     0.788097     0.846619     0.225053    Uiso  ? H
   H31        1.0     0.153381     0.788097     0.225053    Uiso  ? H
   H32        1.0     0.846619     0.211903     0.225053    Uiso  ? H
   H33        1.0     0.290758     0.660760     0.168536    Uiso  ? H
   H34        1.0     0.709242     0.339240     0.168536    Uiso  ? H
   H35        1.0     0.339240     0.290758     0.168536    Uiso  ? H
   H36        1.0     0.660760     0.709242     0.168536    Uiso  ? H
   H37        1.0     0.709242     0.660760     0.831464    Uiso  ? H
   H38        1.0     0.290758     0.339240     0.831464    Uiso  ? H
   H39        1.0     0.660760     0.290758     0.831464    Uiso  ? H
   H40        1.0     0.339240     0.709242     0.831464    Uiso  ? H
   H41        1.0     0.790758     0.160760     0.668536    Uiso  ? H
   H42        1.0     0.209242     0.839240     0.668536    Uiso  ? H
   H43        1.0     0.839240     0.790758     0.668536    Uiso  ? H
   H44        1.0     0.160760     0.209242     0.668536    Uiso  ? H
   H45        1.0     0.209242     0.160760     0.331464    Uiso  ? H
   H46        1.0     0.790758     0.839240     0.331464    Uiso  ? H
   H47        1.0     0.160760     0.790758     0.331464    Uiso  ? H
   H48        1.0     0.839240     0.209242     0.331464    Uiso  ? H
   H49        1.0     0.507084     0.803782     0.175781    Uiso  ? H
   H50        1.0     0.492916     0.196218     0.175781    Uiso  ? H
   H51        1.0     0.196218     0.507084     0.175781    Uiso  ? H
   H52        1.0     0.803782     0.492916     0.175781    Uiso  ? H
   H53        1.0     0.492916     0.803782     0.824219    Uiso  ? H
   H54        1.0     0.507084     0.196218     0.824219    Uiso  ? H
   H55        1.0     0.803782     0.507084     0.824219    Uiso  ? H
   H56        1.0     0.196218     0.492916     0.824219    Uiso  ? H
   H57        1.0     0.007084     0.303782     0.675781    Uiso  ? H
   H58        1.0     0.992916     0.696218     0.675781    Uiso  ? H
   H59        1.0     0.696218     0.007084     0.675781    Uiso  ? H
   H60        1.0     0.303782     0.992916     0.675781    Uiso  ? H
   H61        1.0     0.992916     0.303782     0.324219    Uiso  ? H
   H62        1.0     0.007084     0.696218     0.324219    Uiso  ? H
   H63        1.0     0.303782     0.007084     0.324219    Uiso  ? H
   H64        1.0     0.696218     0.992916     0.324219    Uiso  ? H
   H65        1.0     0.503444     0.799451     0.281615    Uiso  ? H
   H66        1.0     0.496556     0.200549     0.281615    Uiso  ? H
   H67        1.0     0.200549     0.503444     0.281615    Uiso  ? H
   H68        1.0     0.799451     0.496556     0.281615    Uiso  ? H
   H69        1.0     0.496556     0.799451     0.718385    Uiso  ? H
   H70        1.0     0.503444     0.200549     0.718385    Uiso  ? H
   H71        1.0     0.799451     0.503444     0.718385    Uiso  ? H
   H72        1.0     0.200549     0.496556     0.718385    Uiso  ? H
   H73        1.0     0.003444     0.299451     0.781615    Uiso  ? H
   H74        1.0     0.996556     0.700549     0.781615    Uiso  ? H
   H75        1.0     0.700549     0.003444     0.781615    Uiso  ? H
   H76        1.0     0.299451     0.996556     0.781615    Uiso  ? H
   H77        1.0     0.996556     0.299451     0.218385    Uiso  ? H
   H78        1.0     0.003444     0.700549     0.218385    Uiso  ? H
   H79        1.0     0.299451     0.003444     0.218385    Uiso  ? H
   H80        1.0     0.700549     0.996556     0.218385    Uiso  ? H
   H81        1.0     0.868725     0.608418     0.383592    Uiso  ? H
   H82        1.0     0.131275     0.391582     0.383592    Uiso  ? H
   H83        1.0     0.391582     0.868725     0.383592    Uiso  ? H
   H84        1.0     0.608418     0.131275     0.383592    Uiso  ? H
   H85        1.0     0.131275     0.608418     0.616408    Uiso  ? H
   H86        1.0     0.868725     0.391582     0.616408    Uiso  ? H
   H87        1.0     0.608418     0.868725     0.616408    Uiso  ? H
   H88        1.0     0.391582     0.131275     0.616408    Uiso  ? H
   H89        1.0     0.368725     0.108418     0.883592    Uiso  ? H
   H90        1.0     0.631275     0.891582     0.883592    Uiso  ? H
   H91        1.0     0.891582     0.368725     0.883592    Uiso  ? H
   H92        1.0     0.108418     0.631275     0.883592    Uiso  ? H
   H93        1.0     0.631275     0.108418     0.116408    Uiso  ? H
   H94        1.0     0.368725     0.891582     0.116408    Uiso  ? H
   H95        1.0     0.108418     0.368725     0.116408    Uiso  ? H
   H96        1.0     0.891582     0.631275     0.116408    Uiso  ? H
   H97        1.0     0.643711     0.479253     0.370691    Uiso  ? H
   H98        1.0     0.356289     0.520747     0.370691    Uiso  ? H
   H99        1.0     0.520747     0.643711     0.370691    Uiso  ? H
   H100       1.0     0.479253     0.356289     0.370691    Uiso  ? H
   H101       1.0     0.356289     0.479253     0.629309    Uiso  ? H
   H102       1.0     0.643711     0.520747     0.629309    Uiso  ? H
   H103       1.0     0.479253     0.643711     0.629309    Uiso  ? H
   H104       1.0     0.520747     0.356289     0.629309    Uiso  ? H
   H105       1.0     0.143711     0.979253     0.870691    Uiso  ? H
   H106       1.0     0.856289     0.020747     0.870691    Uiso  ? H
   H107       1.0     0.020747     0.143711     0.870691    Uiso  ? H
   H108       1.0     0.979253     0.856289     0.870691    Uiso  ? H
   H109       1.0     0.856289     0.979253     0.129309    Uiso  ? H
   H110       1.0     0.143711     0.020747     0.129309    Uiso  ? H
   H111       1.0     0.979253     0.143711     0.129309    Uiso  ? H
   H112       1.0     0.020747     0.856289     0.129309    Uiso  ? H
   H113       1.0     0.202466     0.865775     0.928635    Uiso  ? H
   H114       1.0     0.797534     0.134225     0.928635    Uiso  ? H
   H115       1.0     0.134225     0.202466     0.928635    Uiso  ? H
   H116       1.0     0.865775     0.797534     0.928635    Uiso  ? H
   H117       1.0     0.797534     0.865775     0.071365    Uiso  ? H
   H118       1.0     0.202466     0.134225     0.071365    Uiso  ? H
   H119       1.0     0.865775     0.202466     0.071365    Uiso  ? H
   H120       1.0     0.134225     0.797534     0.071365    Uiso  ? H
   H121       1.0     0.702466     0.365775     0.428635    Uiso  ? H
   H122       1.0     0.297534     0.634225     0.428635    Uiso  ? H
   H123       1.0     0.634225     0.702466     0.428635    Uiso  ? H
   H124       1.0     0.365775     0.297534     0.428635    Uiso  ? H
   H125       1.0     0.297534     0.365775     0.571365    Uiso  ? H
   H126       1.0     0.702466     0.634225     0.571365    Uiso  ? H
   H127       1.0     0.365775     0.702466     0.571365    Uiso  ? H
   H128       1.0     0.634225     0.297534     0.571365    Uiso  ? H
   H129       1.0     0.437325     0.658044     0.947928    Uiso  ? H
   H130       1.0     0.562675     0.341956     0.947928    Uiso  ? H
   H131       1.0     0.341956     0.437325     0.947928    Uiso  ? H
   H132       1.0     0.658044     0.562675     0.947928    Uiso  ? H
   H133       1.0     0.562675     0.658044     0.052072    Uiso  ? H
   H134       1.0     0.437325     0.341956     0.052072    Uiso  ? H
   H135       1.0     0.658044     0.437325     0.052072    Uiso  ? H
   H136       1.0     0.341956     0.562675     0.052072    Uiso  ? H
   H137       1.0     0.937325     0.158044     0.447928    Uiso  ? H
   H138       1.0     0.062675     0.841956     0.447928    Uiso  ? H
   H139       1.0     0.841956     0.937325     0.447928    Uiso  ? H
   H140       1.0     0.158044     0.062675     0.447928    Uiso  ? H
   H141       1.0     0.062675     0.158044     0.552072    Uiso  ? H
   H142       1.0     0.937325     0.841956     0.552072    Uiso  ? H
   H143       1.0     0.158044     0.937325     0.552072    Uiso  ? H
   H144       1.0     0.841956     0.062675     0.552072    Uiso  ? H
   Al1        1.0     0.313697     0.686303     -0.000000    Uiso  ? Al
   Al2        1.0     0.686303     0.313697     -0.000000    Uiso  ? Al
   Al3        1.0     0.313697     0.313697     -0.000000    Uiso  ? Al
   Al4        1.0     0.686303     0.686303     -0.000000    Uiso  ? Al
   Al5        1.0     0.813697     0.186303     0.500000    Uiso  ? Al
   Al6        1.0     0.186303     0.813697     0.500000    Uiso  ? Al
   Al7        1.0     0.813697     0.813697     0.500000    Uiso  ? Al
   Al8        1.0     0.186303     0.186303     0.500000    Uiso  ? Al
   Al9        1.0     0.500000     0.767771     -0.000000    Uiso  ? Al
   Al10       1.0     0.500000     0.232229     -0.000000    Uiso  ? Al
   Al11       1.0     0.232229     0.500000     -0.000000    Uiso  ? Al
   Al12       1.0     0.767771     0.500000     -0.000000    Uiso  ? Al
   Al13       1.0     0.000000     0.267771     0.500000    Uiso  ? Al
   Al14       1.0     0.000000     0.732229     0.500000    Uiso  ? Al
   Al15       1.0     0.732229     -0.000000     0.500000    Uiso  ? Al
   Al16       1.0     0.267771     -0.000000     0.500000    Uiso  ? Al
