
#======================================================================
# CRYSTAL DATA
#----------------------------------------------------------------------
data_VESTA_phase_1

_chemical_name_common                  'CAU-8                                 '
_cell_length_a                         13.027041
_cell_length_b                         13.027041
_cell_length_c                         52.427818
_cell_angle_alpha                      90.000000
_cell_angle_beta                       90.000000
_cell_angle_gamma                      90.000000
_cell_volume                           8897.200439
_space_group_name_H-M_alt              'P 1'
_space_group_IT_number                 1

loop_
_space_group_symop_operation_xyz
   'x, y, z'

loop_
   _atom_site_label
   _atom_site_occupancy
   _atom_site_fract_x
   _atom_site_fract_y
   _atom_site_fract_z
   _atom_site_adp_type
   _atom_site_U_iso_or_equiv
   _atom_site_type_symbol
   Al1        1.0     0.000000     0.500000     0.000000    Uiso  ? Al
   Al2        1.0     0.500000     0.500000     0.500000    Uiso  ? Al
   Al3        1.0     0.250000     0.250000     0.250000    Uiso  ? Al
   Al4        1.0     0.750000     0.750000     0.750000    Uiso  ? Al
   Al5        1.0     0.250000     0.750000     0.750000    Uiso  ? Al
   Al6        1.0     0.750000     0.250000     0.250000    Uiso  ? Al
   Al7        1.0     0.500000     0.000000     0.500000    Uiso  ? Al
   Al8        1.0     0.000000     0.000000     0.000000    Uiso  ? Al
   Al9        1.0     0.000000     0.250000     0.006247    Uiso  ? Al
   Al10       1.0     0.000000     0.750000     0.993753    Uiso  ? Al
   Al11       1.0     0.500000     0.750000     0.506247    Uiso  ? Al
   Al12       1.0     0.500000     0.250000     0.493753    Uiso  ? Al
   Al13       1.0     0.500000     0.250000     0.256247    Uiso  ? Al
   Al14       1.0     0.500000     0.750000     0.743753    Uiso  ? Al
   Al15       1.0     0.000000     0.750000     0.756247    Uiso  ? Al
   Al16       1.0     0.000000     0.250000     0.243753    Uiso  ? Al
   O1         1.0     0.935493     0.375981     0.005863    Uiso  ? O
   O2         1.0     0.064507     0.624019     0.994137    Uiso  ? O
   O3         1.0     0.564507     0.624019     0.505863    Uiso  ? O
   O4         1.0     0.435493     0.375981     0.494137    Uiso  ? O
   O5         1.0     0.374019     0.185493     0.255863    Uiso  ? O
   O6         1.0     0.625981     0.814507     0.744137    Uiso  ? O
   O7         1.0     0.125981     0.814507     0.755863    Uiso  ? O
   O8         1.0     0.874019     0.185493     0.244137    Uiso  ? O
   O9         1.0     0.435493     0.875981     0.505863    Uiso  ? O
   O10        1.0     0.564507     0.124019     0.494137    Uiso  ? O
   O11        1.0     0.064507     0.124019     0.005863    Uiso  ? O
   O12        1.0     0.935493     0.875981     0.994137    Uiso  ? O
   O13        1.0     0.874019     0.685493     0.755863    Uiso  ? O
   O14        1.0     0.125981     0.314507     0.244137    Uiso  ? O
   O15        1.0     0.625981     0.314507     0.255863    Uiso  ? O
   O16        1.0     0.374019     0.685493     0.744137    Uiso  ? O
   O17        1.0     0.059565     0.450789     0.968550    Uiso  ? O
   O18        1.0     0.940435     0.549211     0.031450    Uiso  ? O
   O19        1.0     0.440435     0.549211     0.468550    Uiso  ? O
   O20        1.0     0.559565     0.450789     0.531450    Uiso  ? O
   O21        1.0     0.299211     0.309565     0.218550    Uiso  ? O
   O22        1.0     0.700789     0.690435     0.781450    Uiso  ? O
   O23        1.0     0.200789     0.690435     0.718550    Uiso  ? O
   O24        1.0     0.799211     0.309565     0.281450    Uiso  ? O
   O25        1.0     0.559565     0.950789     0.468550    Uiso  ? O
   O26        1.0     0.440435     0.049211     0.531450    Uiso  ? O
   O27        1.0     0.940435     0.049211     0.968550    Uiso  ? O
   O28        1.0     0.059565     0.950789     0.031450    Uiso  ? O
   O29        1.0     0.799211     0.809565     0.718550    Uiso  ? O
   O30        1.0     0.200789     0.190435     0.281450    Uiso  ? O
   O31        1.0     0.700789     0.190435     0.218550    Uiso  ? O
   O32        1.0     0.299211     0.809565     0.781450    Uiso  ? O
   O33        1.0     0.095348     0.286164     0.978725    Uiso  ? O
   O34        1.0     0.904652     0.713836     0.021275    Uiso  ? O
   O35        1.0     0.404652     0.713836     0.478725    Uiso  ? O
   O36        1.0     0.595348     0.286164     0.521275    Uiso  ? O
   O37        1.0     0.463836     0.345348     0.228725    Uiso  ? O
   O38        1.0     0.536164     0.654652     0.771275    Uiso  ? O
   O39        1.0     0.036164     0.654652     0.728725    Uiso  ? O
   O40        1.0     0.963836     0.345348     0.271275    Uiso  ? O
   O41        1.0     0.595348     0.786164     0.478725    Uiso  ? O
   O42        1.0     0.404652     0.213836     0.521275    Uiso  ? O
   O43        1.0     0.904652     0.213836     0.978725    Uiso  ? O
   O44        1.0     0.095348     0.786164     0.021275    Uiso  ? O
   O45        1.0     0.963836     0.845348     0.728725    Uiso  ? O
   O46        1.0     0.036164     0.154652     0.271275    Uiso  ? O
   O47        1.0     0.536164     0.154652     0.228725    Uiso  ? O
   O48        1.0     0.463836     0.845348     0.771275    Uiso  ? O
   O49        1.0     0.046636     0.655497     0.781456    Uiso  ? O
   O50        1.0     0.953364     0.344503     0.218544    Uiso  ? O
   O51        1.0     0.453364     0.344503     0.281456    Uiso  ? O
   O52        1.0     0.546636     0.655497     0.718544    Uiso  ? O
   O53        1.0     0.094503     0.296636     0.031456    Uiso  ? O
   O54        1.0     0.905497     0.703364     0.968544    Uiso  ? O
   O55        1.0     0.405497     0.703364     0.531456    Uiso  ? O
   O56        1.0     0.594503     0.296636     0.468544    Uiso  ? O
   O57        1.0     0.546636     0.155497     0.281456    Uiso  ? O
   O58        1.0     0.453364     0.844503     0.718544    Uiso  ? O
   O59        1.0     0.953364     0.844503     0.781456    Uiso  ? O
   O60        1.0     0.046636     0.155497     0.218544    Uiso  ? O
   O61        1.0     0.594503     0.796636     0.531456    Uiso  ? O
   O62        1.0     0.405497     0.203364     0.468544    Uiso  ? O
   O63        1.0     0.905497     0.203364     0.031456    Uiso  ? O
   O64        1.0     0.094503     0.796636     0.968544    Uiso  ? O
   O65        1.0     0.211637     0.631552     0.769531    Uiso  ? O
   O66        1.0     0.788363     0.368448     0.230468    Uiso  ? O
   O67        1.0     0.288363     0.368448     0.269532    Uiso  ? O
   O68        1.0     0.711637     0.631552     0.730469    Uiso  ? O
   O69        1.0     0.118448     0.461637     0.019532    Uiso  ? O
   O70        1.0     0.881552     0.538363     0.980469    Uiso  ? O
   O71        1.0     0.381552     0.538363     0.519531    Uiso  ? O
   O72        1.0     0.618448     0.461637     0.480468    Uiso  ? O
   O73        1.0     0.711637     0.131552     0.269532    Uiso  ? O
   O74        1.0     0.288363     0.868448     0.730469    Uiso  ? O
   O75        1.0     0.788363     0.868448     0.769531    Uiso  ? O
   O76        1.0     0.211637     0.131552     0.230468    Uiso  ? O
   O77        1.0     0.618448     0.961637     0.519531    Uiso  ? O
   O78        1.0     0.381552     0.038363     0.480468    Uiso  ? O
   O79        1.0     0.881552     0.038363     0.019532    Uiso  ? O
   O80        1.0     0.118448     0.961637     0.980469    Uiso  ? O
   O81        1.0     0.204019     0.195694     0.849587    Uiso  ? O
   O82        1.0     0.795981     0.804306     0.150413    Uiso  ? O
   O83        1.0     0.295981     0.804306     0.349587    Uiso  ? O
   O84        1.0     0.704019     0.195694     0.650413    Uiso  ? O
   O85        1.0     0.554306     0.454019     0.099587    Uiso  ? O
   O86        1.0     0.445694     0.545981     0.900413    Uiso  ? O
   O87        1.0     0.945694     0.545981     0.599587    Uiso  ? O
   O88        1.0     0.054306     0.454019     0.400413    Uiso  ? O
   O89        1.0     0.704019     0.695694     0.349587    Uiso  ? O
   O90        1.0     0.295981     0.304306     0.650413    Uiso  ? O
   O91        1.0     0.795981     0.304306     0.849587    Uiso  ? O
   O92        1.0     0.204019     0.695694     0.150413    Uiso  ? O
   O93        1.0     0.054306     0.954019     0.599587    Uiso  ? O
   O94        1.0     0.945694     0.045981     0.400413    Uiso  ? O
   O95        1.0     0.445694     0.045981     0.099587    Uiso  ? O
   O96        1.0     0.554306     0.954019     0.900413    Uiso  ? O
   H1         1.0     0.867186     0.373710     0.998562    Uiso  ? H
   H2         1.0     0.132814     0.626290     0.001438    Uiso  ? H
   H3         1.0     0.632814     0.626290     0.498562    Uiso  ? H
   H4         1.0     0.367186     0.373710     0.501438    Uiso  ? H
   H5         1.0     0.376290     0.117186     0.248562    Uiso  ? H
   H6         1.0     0.623710     0.882814     0.751438    Uiso  ? H
   H7         1.0     0.123710     0.882814     0.748562    Uiso  ? H
   H8         1.0     0.876290     0.117186     0.251438    Uiso  ? H
   H9         1.0     0.367186     0.873710     0.498562    Uiso  ? H
   H10        1.0     0.632814     0.126290     0.501438    Uiso  ? H
   H11        1.0     0.132814     0.126290     0.998562    Uiso  ? H
   H12        1.0     0.867186     0.873710     0.001438    Uiso  ? H
   H13        1.0     0.876290     0.617186     0.748562    Uiso  ? H
   H14        1.0     0.123710     0.382814     0.251438    Uiso  ? H
   H15        1.0     0.623710     0.382814     0.248562    Uiso  ? H
   H16        1.0     0.376290     0.617186     0.751438    Uiso  ? H
   H17        1.0     0.131260     0.177557     0.940815    Uiso  ? H
   H18        1.0     0.868740     0.822443     0.059185    Uiso  ? H
   H19        1.0     0.368740     0.822443     0.440815    Uiso  ? H
   H20        1.0     0.631260     0.177557     0.559185    Uiso  ? H
   H21        1.0     0.572443     0.381260     0.190815    Uiso  ? H
   H22        1.0     0.427557     0.618740     0.809185    Uiso  ? H
   H23        1.0     0.927557     0.618740     0.690815    Uiso  ? H
   H24        1.0     0.072443     0.381260     0.309185    Uiso  ? H
   H25        1.0     0.631260     0.677557     0.440815    Uiso  ? H
   H26        1.0     0.368740     0.322443     0.559185    Uiso  ? H
   H27        1.0     0.868740     0.322443     0.940815    Uiso  ? H
   H28        1.0     0.131260     0.677557     0.059185    Uiso  ? H
   H29        1.0     0.072443     0.881260     0.690815    Uiso  ? H
   H30        1.0     0.927557     0.118740     0.309185    Uiso  ? H
   H31        1.0     0.427557     0.118740     0.190815    Uiso  ? H
   H32        1.0     0.572443     0.881260     0.809185    Uiso  ? H
   H33        1.0     0.163763     0.144367     0.894370    Uiso  ? H
   H34        1.0     0.836237     0.855633     0.105630    Uiso  ? H
   H35        1.0     0.336237     0.855633     0.394370    Uiso  ? H
   H36        1.0     0.663763     0.144367     0.605630    Uiso  ? H
   H37        1.0     0.605633     0.413763     0.144370    Uiso  ? H
   H38        1.0     0.394367     0.586237     0.855630    Uiso  ? H
   H39        1.0     0.894367     0.586237     0.644370    Uiso  ? H
   H40        1.0     0.105633     0.413763     0.355630    Uiso  ? H
   H41        1.0     0.663763     0.644367     0.394370    Uiso  ? H
   H42        1.0     0.336237     0.355633     0.605630    Uiso  ? H
   H43        1.0     0.836237     0.355633     0.894370    Uiso  ? H
   H44        1.0     0.163763     0.644367     0.105630    Uiso  ? H
   H45        1.0     0.105633     0.913763     0.644370    Uiso  ? H
   H46        1.0     0.894367     0.086237     0.355630    Uiso  ? H
   H47        1.0     0.394367     0.086237     0.144370    Uiso  ? H
   H48        1.0     0.605633     0.913763     0.855630    Uiso  ? H
   H49        1.0     0.144718     0.468882     0.879598    Uiso  ? H
   H50        1.0     0.855282     0.531118     0.120402    Uiso  ? H
   H51        1.0     0.355282     0.531118     0.379598    Uiso  ? H
   H52        1.0     0.644718     0.468882     0.620402    Uiso  ? H
   H53        1.0     0.281118     0.394718     0.129598    Uiso  ? H
   H54        1.0     0.718882     0.605282     0.870402    Uiso  ? H
   H55        1.0     0.218882     0.605282     0.629598    Uiso  ? H
   H56        1.0     0.781118     0.394718     0.370402    Uiso  ? H
   H57        1.0     0.644718     0.968882     0.379598    Uiso  ? H
   H58        1.0     0.355282     0.031118     0.620402    Uiso  ? H
   H59        1.0     0.855282     0.031118     0.879598    Uiso  ? H
   H60        1.0     0.144718     0.968882     0.120402    Uiso  ? H
   H61        1.0     0.781118     0.894718     0.629598    Uiso  ? H
   H62        1.0     0.218882     0.105282     0.370402    Uiso  ? H
   H63        1.0     0.718882     0.105282     0.129598    Uiso  ? H
   H64        1.0     0.281118     0.894718     0.870402    Uiso  ? H
   H65        1.0     0.110924     0.501028     0.925730    Uiso  ? H
   H66        1.0     0.889076     0.498972     0.074270    Uiso  ? H
   H67        1.0     0.389076     0.498972     0.425730    Uiso  ? H
   H68        1.0     0.610924     0.501028     0.574270    Uiso  ? H
   H69        1.0     0.248972     0.360924     0.175730    Uiso  ? H
   H70        1.0     0.751028     0.639076     0.824270    Uiso  ? H
   H71        1.0     0.251028     0.639076     0.675730    Uiso  ? H
   H72        1.0     0.748972     0.360924     0.324270    Uiso  ? H
   H73        1.0     0.610924     0.001028     0.425730    Uiso  ? H
   H74        1.0     0.389076     0.998972     0.574270    Uiso  ? H
   H75        1.0     0.889076     0.998972     0.925730    Uiso  ? H
   H76        1.0     0.110924     0.001028     0.074270    Uiso  ? H
   H77        1.0     0.748972     0.860924     0.675730    Uiso  ? H
   H78        1.0     0.251028     0.139076     0.324270    Uiso  ? H
   H79        1.0     0.751028     0.139076     0.175730    Uiso  ? H
   H80        1.0     0.248972     0.860924     0.824270    Uiso  ? H
   H81        1.0     0.315251     0.347459     0.823206    Uiso  ? H
   H82        1.0     0.684749     0.652541     0.176794    Uiso  ? H
   H83        1.0     0.184749     0.652541     0.323206    Uiso  ? H
   H84        1.0     0.815251     0.347459     0.676794    Uiso  ? H
   H85        1.0     0.402541     0.565251     0.073206    Uiso  ? H
   H86        1.0     0.597459     0.434749     0.926794    Uiso  ? H
   H87        1.0     0.097459     0.434749     0.573206    Uiso  ? H
   H88        1.0     0.902541     0.565251     0.426794    Uiso  ? H
   H89        1.0     0.815251     0.847459     0.323206    Uiso  ? H
   H90        1.0     0.184749     0.152541     0.676794    Uiso  ? H
   H91        1.0     0.684749     0.152541     0.823206    Uiso  ? H
   H92        1.0     0.315251     0.847459     0.176794    Uiso  ? H
   H93        1.0     0.902541     0.065251     0.573206    Uiso  ? H
   H94        1.0     0.097459     0.934749     0.426794    Uiso  ? H
   H95        1.0     0.597459     0.934749     0.073206    Uiso  ? H
   H96        1.0     0.402541     0.065251     0.926794    Uiso  ? H
   H97        1.0     0.299113     0.490589     0.791685    Uiso  ? H
   H98        1.0     0.700886     0.509411     0.208315    Uiso  ? H
   H99        1.0     0.200887     0.509411     0.291685    Uiso  ? H
   H100       1.0     0.799114     0.490589     0.708315    Uiso  ? H
   H101       1.0     0.259411     0.549114     0.041685    Uiso  ? H
   H102       1.0     0.740589     0.450887     0.958315    Uiso  ? H
   H103       1.0     0.240589     0.450887     0.541685    Uiso  ? H
   H104       1.0     0.759411     0.549114     0.458315    Uiso  ? H
   H105       1.0     0.799114     0.990589     0.291685    Uiso  ? H
   H106       1.0     0.200887     0.009411     0.708315    Uiso  ? H
   H107       1.0     0.700886     0.009411     0.791685    Uiso  ? H
   H108       1.0     0.299113     0.990589     0.208315    Uiso  ? H
   H109       1.0     0.759411     0.049113     0.541685    Uiso  ? H
   H110       1.0     0.240589     0.950886     0.458315    Uiso  ? H
   H111       1.0     0.740589     0.950886     0.041685    Uiso  ? H
   H112       1.0     0.259411     0.049113     0.958315    Uiso  ? H
   H113       1.0     0.986081     0.538006     0.814573    Uiso  ? H
   H114       1.0     0.013919     0.461994     0.185427    Uiso  ? H
   H115       1.0     0.513919     0.461994     0.314573    Uiso  ? H
   H116       1.0     0.486081     0.538006     0.685427    Uiso  ? H
   H117       1.0     0.211994     0.236081     0.064573    Uiso  ? H
   H118       1.0     0.788006     0.763919     0.935427    Uiso  ? H
   H119       1.0     0.288006     0.763919     0.564573    Uiso  ? H
   H120       1.0     0.711994     0.236081     0.435427    Uiso  ? H
   H121       1.0     0.486081     0.038006     0.314573    Uiso  ? H
   H122       1.0     0.513919     0.961994     0.685427    Uiso  ? H
   H123       1.0     0.013919     0.961994     0.814573    Uiso  ? H
   H124       1.0     0.986081     0.038006     0.185427    Uiso  ? H
   H125       1.0     0.711994     0.736081     0.564573    Uiso  ? H
   H126       1.0     0.288006     0.263919     0.435427    Uiso  ? H
   H127       1.0     0.788006     0.263919     0.064573    Uiso  ? H
   H128       1.0     0.211994     0.736081     0.935427    Uiso  ? H
   H129       1.0     0.002870     0.399596     0.847151    Uiso  ? H
   H130       1.0     0.997130     0.600404     0.152849    Uiso  ? H
   H131       1.0     0.497130     0.600404     0.347151    Uiso  ? H
   H132       1.0     0.502870     0.399596     0.652849    Uiso  ? H
   H133       1.0     0.350404     0.252870     0.097151    Uiso  ? H
   H134       1.0     0.649596     0.747130     0.902849    Uiso  ? H
   H135       1.0     0.149596     0.747130     0.597151    Uiso  ? H
   H136       1.0     0.850404     0.252870     0.402849    Uiso  ? H
   H137       1.0     0.502870     0.899596     0.347151    Uiso  ? H
   H138       1.0     0.497130     0.100404     0.652849    Uiso  ? H
   H139       1.0     0.997130     0.100404     0.847151    Uiso  ? H
   H140       1.0     0.002870     0.899596     0.152849    Uiso  ? H
   H141       1.0     0.850404     0.752870     0.597151    Uiso  ? H
   H142       1.0     0.149596     0.247130     0.402849    Uiso  ? H
   H143       1.0     0.649596     0.247130     0.097151    Uiso  ? H
   H144       1.0     0.350404     0.752870     0.902849    Uiso  ? H
   C1         1.0     0.090415     0.360964     0.963022    Uiso  ? C
   C2         1.0     0.909585     0.639036     0.036978    Uiso  ? C
   C3         1.0     0.409585     0.639036     0.463022    Uiso  ? C
   C4         1.0     0.590415     0.360964     0.536978    Uiso  ? C
   C5         1.0     0.389036     0.340415     0.213022    Uiso  ? C
   C6         1.0     0.610964     0.659585     0.786978    Uiso  ? C
   C7         1.0     0.110964     0.659585     0.713022    Uiso  ? C
   C8         1.0     0.889036     0.340415     0.286978    Uiso  ? C
   C9         1.0     0.590415     0.860964     0.463022    Uiso  ? C
   C10        1.0     0.409585     0.139036     0.536978    Uiso  ? C
   C11        1.0     0.909585     0.139036     0.963022    Uiso  ? C
   C12        1.0     0.090415     0.860964     0.036978    Uiso  ? C
   C13        1.0     0.889036     0.840415     0.713022    Uiso  ? C
   C14        1.0     0.110964     0.159585     0.286978    Uiso  ? C
   C15        1.0     0.610964     0.159585     0.213022    Uiso  ? C
   C16        1.0     0.389036     0.840415     0.786978    Uiso  ? C
   C17        1.0     0.118934     0.341372     0.935874    Uiso  ? C
   C18        1.0     0.881066     0.658628     0.064126    Uiso  ? C
   C19        1.0     0.381066     0.658628     0.435874    Uiso  ? C
   C20        1.0     0.618934     0.341372     0.564126    Uiso  ? C
   C21        1.0     0.408628     0.368934     0.185874    Uiso  ? C
   C22        1.0     0.591372     0.631066     0.814126    Uiso  ? C
   C23        1.0     0.091372     0.631066     0.685874    Uiso  ? C
   C24        1.0     0.908628     0.368934     0.314126    Uiso  ? C
   C25        1.0     0.618934     0.841372     0.435874    Uiso  ? C
   C26        1.0     0.381066     0.158628     0.564126    Uiso  ? C
   C27        1.0     0.881066     0.158628     0.935874    Uiso  ? C
   C28        1.0     0.118934     0.841372     0.064126    Uiso  ? C
   C29        1.0     0.908628     0.868934     0.685874    Uiso  ? C
   C30        1.0     0.091372     0.131066     0.314126    Uiso  ? C
   C31        1.0     0.591372     0.131066     0.185874    Uiso  ? C
   C32        1.0     0.408628     0.868934     0.814126    Uiso  ? C
   C33        1.0     0.134816     0.240631     0.927209    Uiso  ? C
   C34        1.0     0.865184     0.759369     0.072791    Uiso  ? C
   C35        1.0     0.365184     0.759369     0.427209    Uiso  ? C
   C36        1.0     0.634816     0.240631     0.572791    Uiso  ? C
   C37        1.0     0.509369     0.384816     0.177209    Uiso  ? C
   C38        1.0     0.490631     0.615184     0.822791    Uiso  ? C
   C39        1.0     0.990631     0.615184     0.677209    Uiso  ? C
   C40        1.0     0.009369     0.384816     0.322791    Uiso  ? C
   C41        1.0     0.634816     0.740631     0.427209    Uiso  ? C
   C42        1.0     0.365184     0.259369     0.572791    Uiso  ? C
   C43        1.0     0.865184     0.259369     0.927209    Uiso  ? C
   C44        1.0     0.134816     0.740631     0.072791    Uiso  ? C
   C45        1.0     0.009369     0.884816     0.677209    Uiso  ? C
   C46        1.0     0.990631     0.115184     0.322791    Uiso  ? C
   C47        1.0     0.490631     0.115184     0.177209    Uiso  ? C
   C48        1.0     0.509369     0.884816     0.822791    Uiso  ? C
   C49        1.0     0.151862     0.222058     0.901494    Uiso  ? C
   C50        1.0     0.848138     0.777942     0.098506    Uiso  ? C
   C51        1.0     0.348138     0.777942     0.401494    Uiso  ? C
   C52        1.0     0.651862     0.222058     0.598506    Uiso  ? C
   C53        1.0     0.527942     0.401862     0.151494    Uiso  ? C
   C54        1.0     0.472058     0.598138     0.848506    Uiso  ? C
   C55        1.0     0.972058     0.598138     0.651494    Uiso  ? C
   C56        1.0     0.027942     0.401862     0.348506    Uiso  ? C
   C57        1.0     0.651862     0.722058     0.401494    Uiso  ? C
   C58        1.0     0.348138     0.277942     0.598506    Uiso  ? C
   C59        1.0     0.848138     0.277942     0.901494    Uiso  ? C
   C60        1.0     0.151862     0.722058     0.098506    Uiso  ? C
   C61        1.0     0.027942     0.901862     0.651494    Uiso  ? C
   C62        1.0     0.972058     0.098138     0.348506    Uiso  ? C
   C63        1.0     0.472058     0.098138     0.151494    Uiso  ? C
   C64        1.0     0.527942     0.901862     0.848506    Uiso  ? C
   C65        1.0     0.153682     0.303873     0.884010    Uiso  ? C
   C66        1.0     0.846318     0.696127     0.115990    Uiso  ? C
   C67        1.0     0.346318     0.696127     0.384010    Uiso  ? C
   C68        1.0     0.653682     0.303873     0.615990    Uiso  ? C
   C69        1.0     0.446127     0.403682     0.134010    Uiso  ? C
   C70        1.0     0.553873     0.596318     0.865990    Uiso  ? C
   C71        1.0     0.053873     0.596318     0.634010    Uiso  ? C
   C72        1.0     0.946127     0.403682     0.365990    Uiso  ? C
   C73        1.0     0.653682     0.803873     0.384010    Uiso  ? C
   C74        1.0     0.346318     0.196127     0.615990    Uiso  ? C
   C75        1.0     0.846318     0.196127     0.884010    Uiso  ? C
   C76        1.0     0.153682     0.803873     0.115990    Uiso  ? C
   C77        1.0     0.946127     0.903682     0.634010    Uiso  ? C
   C78        1.0     0.053873     0.096318     0.365990    Uiso  ? C
   C79        1.0     0.553873     0.096318     0.134010    Uiso  ? C
   C80        1.0     0.446127     0.903682     0.865990    Uiso  ? C
   C81        1.0     0.140499     0.404798     0.892891    Uiso  ? C
   C82        1.0     0.859501     0.595202     0.107109    Uiso  ? C
   C83        1.0     0.359501     0.595202     0.392891    Uiso  ? C
   C84        1.0     0.640499     0.404798     0.607109    Uiso  ? C
   C85        1.0     0.345202     0.390499     0.142891    Uiso  ? C
   C86        1.0     0.654798     0.609501     0.857109    Uiso  ? C
   C87        1.0     0.154798     0.609501     0.642891    Uiso  ? C
   C88        1.0     0.845202     0.390499     0.357109    Uiso  ? C
   C89        1.0     0.640499     0.904798     0.392891    Uiso  ? C
   C90        1.0     0.359501     0.095202     0.607109    Uiso  ? C
   C91        1.0     0.859501     0.095202     0.892891    Uiso  ? C
   C92        1.0     0.140499     0.904798     0.107109    Uiso  ? C
   C93        1.0     0.845202     0.890499     0.642891    Uiso  ? C
   C94        1.0     0.154798     0.109501     0.357109    Uiso  ? C
   C95        1.0     0.654798     0.109501     0.142891    Uiso  ? C
   C96        1.0     0.345202     0.890499     0.857109    Uiso  ? C
   C97        1.0     0.122820     0.423360     0.918632    Uiso  ? C
   C98        1.0     0.877180     0.576640     0.081368    Uiso  ? C
   C99        1.0     0.377180     0.576640     0.418632    Uiso  ? C
   C100       1.0     0.622820     0.423360     0.581368    Uiso  ? C
   C101       1.0     0.326640     0.372820     0.168632    Uiso  ? C
   C102       1.0     0.673360     0.627180     0.831368    Uiso  ? C
   C103       1.0     0.173360     0.627180     0.668632    Uiso  ? C
   C104       1.0     0.826640     0.372820     0.331368    Uiso  ? C
   C105       1.0     0.622820     0.923360     0.418632    Uiso  ? C
   C106       1.0     0.377180     0.076640     0.581368    Uiso  ? C
   C107       1.0     0.877180     0.076640     0.918632    Uiso  ? C
   C108       1.0     0.122820     0.923360     0.081368    Uiso  ? C
   C109       1.0     0.826640     0.872820     0.668632    Uiso  ? C
   C110       1.0     0.173360     0.127180     0.331368    Uiso  ? C
   C111       1.0     0.673360     0.127180     0.168632    Uiso  ? C
   C112       1.0     0.326640     0.872820     0.831368    Uiso  ? C
   C113       1.0     0.174334     0.281183     0.856592    Uiso  ? C
   C114       1.0     0.825666     0.718817     0.143408    Uiso  ? C
   C115       1.0     0.325666     0.718817     0.356592    Uiso  ? C
   C116       1.0     0.674334     0.281183     0.643408    Uiso  ? C
   C117       1.0     0.468817     0.424334     0.106592    Uiso  ? C
   C118       1.0     0.531183     0.575666     0.893408    Uiso  ? C
   C119       1.0     0.031183     0.575666     0.606592    Uiso  ? C
   C120       1.0     0.968817     0.424334     0.393408    Uiso  ? C
   C121       1.0     0.674334     0.781183     0.356592    Uiso  ? C
   C122       1.0     0.325666     0.218817     0.643408    Uiso  ? C
   C123       1.0     0.825666     0.218817     0.856592    Uiso  ? C
   C124       1.0     0.174334     0.781183     0.143408    Uiso  ? C
   C125       1.0     0.968817     0.924334     0.606592    Uiso  ? C
   C126       1.0     0.031183     0.075666     0.393408    Uiso  ? C
   C127       1.0     0.531183     0.075666     0.106592    Uiso  ? C
   C128       1.0     0.468817     0.924334     0.893408    Uiso  ? C
   C129       1.0     0.161127     0.365862     0.837486    Uiso  ? C
   C130       1.0     0.838873     0.634138     0.162514    Uiso  ? C
   C131       1.0     0.338873     0.634138     0.337486    Uiso  ? C
   C132       1.0     0.661127     0.365862     0.662514    Uiso  ? C
   C133       1.0     0.384138     0.411127     0.087486    Uiso  ? C
   C134       1.0     0.615862     0.588873     0.912514    Uiso  ? C
   C135       1.0     0.115862     0.588873     0.587486    Uiso  ? C
   C136       1.0     0.884138     0.411127     0.412514    Uiso  ? C
   C137       1.0     0.661127     0.865862     0.337486    Uiso  ? C
   C138       1.0     0.338873     0.134138     0.662514    Uiso  ? C
   C139       1.0     0.838873     0.134138     0.837486    Uiso  ? C
   C140       1.0     0.161127     0.865862     0.162514    Uiso  ? C
   C141       1.0     0.884138     0.911127     0.587486    Uiso  ? C
   C142       1.0     0.115862     0.088873     0.412514    Uiso  ? C
   C143       1.0     0.615862     0.088873     0.087486    Uiso  ? C
   C144       1.0     0.384138     0.911127     0.912514    Uiso  ? C
   C145       1.0     0.243715     0.390253     0.821427    Uiso  ? C
   C146       1.0     0.756285     0.609747     0.178573    Uiso  ? C
   C147       1.0     0.256285     0.609747     0.321427    Uiso  ? C
   C148       1.0     0.743715     0.390253     0.678573    Uiso  ? C
   C149       1.0     0.359747     0.493715     0.071427    Uiso  ? C
   C150       1.0     0.640253     0.506285     0.928573    Uiso  ? C
   C151       1.0     0.140253     0.506285     0.571427    Uiso  ? C
   C152       1.0     0.859747     0.493715     0.428573    Uiso  ? C
   C153       1.0     0.743715     0.890253     0.321427    Uiso  ? C
   C154       1.0     0.256285     0.109747     0.678573    Uiso  ? C
   C155       1.0     0.756285     0.109747     0.821427    Uiso  ? C
   C156       1.0     0.243715     0.890253     0.178573    Uiso  ? C
   C157       1.0     0.859747     0.993715     0.571427    Uiso  ? C
   C158       1.0     0.140253     0.006285     0.428573    Uiso  ? C
   C159       1.0     0.640253     0.006285     0.071427    Uiso  ? C
   C160       1.0     0.359747     0.993715     0.928573    Uiso  ? C
   C161       1.0     0.234662     0.469587     0.803838    Uiso  ? C
   C162       1.0     0.765338     0.530413     0.196162    Uiso  ? C
   C163       1.0     0.265338     0.530413     0.303838    Uiso  ? C
   C164       1.0     0.734662     0.469587     0.696162    Uiso  ? C
   C165       1.0     0.280413     0.484662     0.053838    Uiso  ? C
   C166       1.0     0.719587     0.515338     0.946162    Uiso  ? C
   C167       1.0     0.219587     0.515338     0.553838    Uiso  ? C
   C168       1.0     0.780413     0.484662     0.446162    Uiso  ? C
   C169       1.0     0.734662     0.969587     0.303838    Uiso  ? C
   C170       1.0     0.265338     0.030413     0.696162    Uiso  ? C
   C171       1.0     0.765338     0.030413     0.803838    Uiso  ? C
   C172       1.0     0.234662     0.969587     0.196162    Uiso  ? C
   C173       1.0     0.780413     0.984662     0.553838    Uiso  ? C
   C174       1.0     0.219587     0.015338     0.446162    Uiso  ? C
   C175       1.0     0.719587     0.015338     0.053838    Uiso  ? C
   C176       1.0     0.280413     0.984662     0.946162    Uiso  ? C
   C177       1.0     0.141993     0.523585     0.801503    Uiso  ? C
   C178       1.0     0.858007     0.476415     0.198497    Uiso  ? C
   C179       1.0     0.358007     0.476415     0.301503    Uiso  ? C
   C180       1.0     0.641993     0.523585     0.698497    Uiso  ? C
   C181       1.0     0.226415     0.391993     0.051503    Uiso  ? C
   C182       1.0     0.773585     0.608007     0.948497    Uiso  ? C
   C183       1.0     0.273585     0.608007     0.551503    Uiso  ? C
   C184       1.0     0.726415     0.391993     0.448497    Uiso  ? C
   C185       1.0     0.641993     0.023585     0.301503    Uiso  ? C
   C186       1.0     0.358007     0.976415     0.698497    Uiso  ? C
   C187       1.0     0.858007     0.976415     0.801503    Uiso  ? C
   C188       1.0     0.141993     0.023585     0.198497    Uiso  ? C
   C189       1.0     0.726415     0.891993     0.551503    Uiso  ? C
   C190       1.0     0.273585     0.108007     0.448497    Uiso  ? C
   C191       1.0     0.773585     0.108007     0.051503    Uiso  ? C
   C192       1.0     0.226415     0.891993     0.948497    Uiso  ? C
   C193       1.0     0.058217     0.496777     0.816917    Uiso  ? C
   C194       1.0     0.941783     0.503223     0.183083    Uiso  ? C
   C195       1.0     0.441783     0.503223     0.316917    Uiso  ? C
   C196       1.0     0.558217     0.496777     0.683083    Uiso  ? C
   C197       1.0     0.253223     0.308217     0.066917    Uiso  ? C
   C198       1.0     0.746777     0.691783     0.933083    Uiso  ? C
   C199       1.0     0.246777     0.691783     0.566917    Uiso  ? C
   C200       1.0     0.753223     0.308217     0.433083    Uiso  ? C
   C201       1.0     0.558217     0.996777     0.316917    Uiso  ? C
   C202       1.0     0.441783     0.003223     0.683083    Uiso  ? C
   C203       1.0     0.941783     0.003223     0.816917    Uiso  ? C
   C204       1.0     0.058217     0.996777     0.183083    Uiso  ? C
   C205       1.0     0.753223     0.808217     0.566917    Uiso  ? C
   C206       1.0     0.246777     0.191783     0.433083    Uiso  ? C
   C207       1.0     0.746777     0.191783     0.066917    Uiso  ? C
   C208       1.0     0.253223     0.808217     0.933083    Uiso  ? C
   C209       1.0     0.068108     0.419411     0.835074    Uiso  ? C
   C210       1.0     0.931892     0.580589     0.164926    Uiso  ? C
   C211       1.0     0.431892     0.580589     0.335074    Uiso  ? C
   C212       1.0     0.568108     0.419411     0.664926    Uiso  ? C
   C213       1.0     0.330589     0.318108     0.085074    Uiso  ? C
   C214       1.0     0.669411     0.681892     0.914926    Uiso  ? C
   C215       1.0     0.169411     0.681892     0.585074    Uiso  ? C
   C216       1.0     0.830589     0.318108     0.414926    Uiso  ? C
   C217       1.0     0.568108     0.919411     0.335074    Uiso  ? C
   C218       1.0     0.431892     0.080589     0.664926    Uiso  ? C
   C219       1.0     0.931892     0.080589     0.835074    Uiso  ? C
   C220       1.0     0.068108     0.919411     0.164926    Uiso  ? C
   C221       1.0     0.830589     0.818108     0.585074    Uiso  ? C
   C222       1.0     0.169411     0.181892     0.414926    Uiso  ? C
   C223       1.0     0.669411     0.181892     0.085074    Uiso  ? C
   C224       1.0     0.330589     0.818108     0.914926    Uiso  ? C
   C225       1.0     0.132678     0.609537     0.782890    Uiso  ? C
   C226       1.0     0.867322     0.390463     0.217110    Uiso  ? C
   C227       1.0     0.367322     0.390463     0.282890    Uiso  ? C
   C228       1.0     0.632678     0.609537     0.717110    Uiso  ? C
   C229       1.0     0.140463     0.382678     0.032890    Uiso  ? C
   C230       1.0     0.859537     0.617322     0.967110    Uiso  ? C
   C231       1.0     0.359537     0.617322     0.532890    Uiso  ? C
   C232       1.0     0.640463     0.382678     0.467110    Uiso  ? C
   C233       1.0     0.632678     0.109537     0.282890    Uiso  ? C
   C234       1.0     0.367322     0.890463     0.717110    Uiso  ? C
   C235       1.0     0.867322     0.890463     0.782890    Uiso  ? C
   C236       1.0     0.132678     0.109537     0.217110    Uiso  ? C
   C237       1.0     0.640463     0.882678     0.532890    Uiso  ? C
   C238       1.0     0.359537     0.117322     0.467110    Uiso  ? C
   C239       1.0     0.859537     0.117322     0.032890    Uiso  ? C
   C240       1.0     0.140463     0.882678     0.967110    Uiso  ? C
