
#======================================================================
# CRYSTAL DATA
#----------------------------------------------------------------------
data_VESTA_phase_1

_chemical_name_common                  'CAU-8-ODB-vesta                       '
_cell_length_a                         12.811420
_cell_length_b                         12.818785
_cell_length_c                         50.581802
_cell_angle_alpha                      89.980293
_cell_angle_beta                       89.967712
_cell_angle_gamma                      89.949631
_cell_volume                           8306.884571
_space_group_name_H-M_alt              'P 1'
_space_group_IT_number                 1

loop_
_space_group_symop_operation_xyz
   'x, y, z'

loop_
   _atom_site_label
   _atom_site_occupancy
   _atom_site_fract_x
   _atom_site_fract_y
   _atom_site_fract_z
   _atom_site_adp_type
   _atom_site_U_iso_or_equiv
   _atom_site_type_symbol
   Al1        1.0     0.500398     0.750079     0.124992    Uiso  ? Al
   Al2        1.0     0.000144     0.749941     0.624933    Uiso  ? Al
   Al3        1.0     0.249984     0.999718     0.375012    Uiso  ? Al
   Al4        1.0     0.249979     0.500884     0.874886    Uiso  ? Al
   Al5        1.0     0.749483     0.500154     0.874980    Uiso  ? Al
   Al6        1.0     0.750135     0.999749     0.375050    Uiso  ? Al
   Al7        1.0     0.000363     0.249907     0.625167    Uiso  ? Al
   Al8        1.0     0.499650     0.249650     0.124780    Uiso  ? Al
   Al9        1.0     0.499946     0.999837     0.133791    Uiso  ? Al
   Al10       1.0     0.999951     0.499956     0.633871    Uiso  ? Al
   Al11       1.0     0.000073     0.999966     0.383849    Uiso  ? Al
   Al12       1.0     0.499725     0.499763     0.883731    Uiso  ? Al
   Al13       1.0     0.499764     0.500312     0.116093    Uiso  ? Al
   Al14       1.0     0.999960     0.999968     0.616053    Uiso  ? Al
   Al15       1.0     0.999307     0.500326     0.866163    Uiso  ? Al
   Al16       1.0     0.500198     0.999915     0.366212    Uiso  ? Al
   O1         1.0     0.566474     0.872793     0.133751    Uiso  ? O
   O2         1.0     0.934003     0.627375     0.633864    Uiso  ? O
   O3         1.0     0.127308     0.065994     0.383894    Uiso  ? O
   O4         1.0     0.372390     0.433816     0.883468    Uiso  ? O
   O5         1.0     0.433797     0.627489     0.116236    Uiso  ? O
   O6         1.0     0.066010     0.872604     0.615963    Uiso  ? O
   O7         1.0     0.872335     0.434049     0.866171    Uiso  ? O
   O8         1.0     0.627445     0.065945     0.366188    Uiso  ? O
   O9         1.0     0.066219     0.372613     0.634004    Uiso  ? O
   O10        1.0     0.433717     0.127199     0.133723    Uiso  ? O
   O11        1.0     0.626849     0.566189     0.883890    Uiso  ? O
   O12        1.0     0.872856     0.933840     0.383962    Uiso  ? O
   O13        1.0     0.934210     0.127442     0.616242    Uiso  ? O
   O14        1.0     0.565246     0.372655     0.116147    Uiso  ? O
   O15        1.0     0.372878     0.934003     0.366124    Uiso  ? O
   O16        1.0     0.126751     0.565942     0.865950    Uiso  ? O
   O17        1.0     0.554521     0.694390     0.157499    Uiso  ? O
   O18        1.0     0.946923     0.805808     0.657586    Uiso  ? O
   O19        1.0     0.305721     0.053463     0.407615    Uiso  ? O
   O20        1.0     0.194159     0.446800     0.907462    Uiso  ? O
   O21        1.0     0.446881     0.805703     0.092332    Uiso  ? O
   O22        1.0     0.053270     0.693964     0.592319    Uiso  ? O
   O23        1.0     0.694346     0.446980     0.842328    Uiso  ? O
   O24        1.0     0.805759     0.052994     0.342391    Uiso  ? O
   O25        1.0     0.054548     0.193678     0.657784    Uiso  ? O
   O26        1.0     0.445056     0.305195     0.157538    Uiso  ? O
   O27        1.0     0.805442     0.553760     0.907598    Uiso  ? O
   O28        1.0     0.694314     0.946557     0.407701    Uiso  ? O
   O29        1.0     0.946856     0.305707     0.592513    Uiso  ? O
   O30        1.0     0.553340     0.194323     0.092239    Uiso  ? O
   O31        1.0     0.194325     0.946469     0.342434    Uiso  ? O
   O32        1.0     0.305279     0.554865     0.842280    Uiso  ? O
   O33        1.0     0.597201     0.531172     0.144851    Uiso  ? O
   O34        1.0     0.901532     0.967978     0.644676    Uiso  ? O
   O35        1.0     0.467804     0.099030     0.394644    Uiso  ? O
   O36        1.0     0.032022     0.401353     0.894586    Uiso  ? O
   O37        1.0     0.401327     0.967826     0.105248    Uiso  ? O
   O38        1.0     0.098266     0.531628     0.605205    Uiso  ? O
   O39        1.0     0.532533     0.401001     0.855312    Uiso  ? O
   O40        1.0     0.968011     0.098321     0.355233    Uiso  ? O
   O41        1.0     0.098946     0.031617     0.644527    Uiso  ? O
   O42        1.0     0.400108     0.468182     0.144768    Uiso  ? O
   O43        1.0     0.967690     0.598820     0.894641    Uiso  ? O
   O44        1.0     0.531887     0.901794     0.394867    Uiso  ? O
   O45        1.0     0.901097     0.467829     0.605367    Uiso  ? O
   O46        1.0     0.598544     0.032129     0.105175    Uiso  ? O
   O47        1.0     0.032173     0.901108     0.355372    Uiso  ? O
   O48        1.0     0.468180     0.598157     0.855048    Uiso  ? O
   O49        1.0     0.550084     0.901956     0.340689    Uiso  ? O
   O50        1.0     0.949677     0.598076     0.840519    Uiso  ? O
   O51        1.0     0.098122     0.049964     0.590502    Uiso  ? O
   O52        1.0     0.401453     0.450530     0.090599    Uiso  ? O
   O53        1.0     0.449548     0.597873     0.909277    Uiso  ? O
   O54        1.0     0.049908     0.901956     0.409461    Uiso  ? O
   O55        1.0     0.901611     0.450370     0.659416    Uiso  ? O
   O56        1.0     0.598163     0.049682     0.159307    Uiso  ? O
   O57        1.0     0.048668     0.401785     0.840428    Uiso  ? O
   O58        1.0     0.450614     0.098348     0.340676    Uiso  ? O
   O59        1.0     0.598260     0.549514     0.090586    Uiso  ? O
   O60        1.0     0.901598     0.950507     0.590579    Uiso  ? O
   O61        1.0     0.950269     0.098316     0.409391    Uiso  ? O
   O62        1.0     0.549208     0.401897     0.909371    Uiso  ? O
   O63        1.0     0.402189     0.950676     0.159423    Uiso  ? O
   O64        1.0     0.098331     0.549852     0.659345    Uiso  ? O
   O65        1.0     0.713861     0.874886     0.355893    Uiso  ? O
   O66        1.0     0.785953     0.625138     0.855793    Uiso  ? O
   O67        1.0     0.125153     0.213360     0.605914    Uiso  ? O
   O68        1.0     0.374791     0.286606     0.105724    Uiso  ? O
   O69        1.0     0.285729     0.625187     0.894143    Uiso  ? O
   O70        1.0     0.213794     0.875061     0.394248    Uiso  ? O
   O71        1.0     0.875656     0.286253     0.644393    Uiso  ? O
   O72        1.0     0.624031     0.213695     0.144177    Uiso  ? O
   O73        1.0     0.213531     0.376128     0.855487    Uiso  ? O
   O74        1.0     0.286485     0.124616     0.355834    Uiso  ? O
   O75        1.0     0.625009     0.713324     0.105713    Uiso  ? O
   O76        1.0     0.875194     0.786633     0.605776    Uiso  ? O
   O77        1.0     0.786378     0.124730     0.394186    Uiso  ? O
   O78        1.0     0.713283     0.375462     0.894236    Uiso  ? O
   O79        1.0     0.376127     0.786898     0.144219    Uiso  ? O
   O80        1.0     0.125077     0.713551     0.644087    Uiso  ? O
   O81        1.0     0.680133     0.516868     0.269191    Uiso  ? O
   O82        1.0     0.819327     0.983273     0.769043    Uiso  ? O
   O83        1.0     0.482641     0.182529     0.518927    Uiso  ? O
   O84        1.0     0.016782     0.319539     0.019015    Uiso  ? O
   O85        1.0     0.318926     0.982764     0.980897    Uiso  ? O
   O86        1.0     0.179792     0.516294     0.480790    Uiso  ? O
   O87        1.0     0.516510     0.319590     0.730926    Uiso  ? O
   O88        1.0     0.981748     0.183273     0.230965    Uiso  ? O
   O89        1.0     0.194018     0.013351     0.768206    Uiso  ? O
   O90        1.0     0.322385     0.488497     0.270818    Uiso  ? O
   O91        1.0     0.982923     0.681814     0.018938    Uiso  ? O
   O92        1.0     0.516681     0.819158     0.519188    Uiso  ? O
   O93        1.0     0.816284     0.481721     0.481119    Uiso  ? O
   O94        1.0     0.680319     0.016732     0.980793    Uiso  ? O
   O95        1.0     0.018348     0.816795     0.231111    Uiso  ? O
   O96        1.0     0.483504     0.680963     0.730715    Uiso  ? O
   C1         1.0     0.590430     0.603720     0.162151    Uiso  ? C
   C2         1.0     0.908904     0.895888     0.662061    Uiso  ? C
   C3         1.0     0.395657     0.091797     0.412034    Uiso  ? C
   C4         1.0     0.104126     0.408827     0.911976    Uiso  ? C
   C5         1.0     0.408645     0.895693     0.087881    Uiso  ? C
   C6         1.0     0.090901     0.603739     0.587823    Uiso  ? C
   C7         1.0     0.604468     0.408367     0.837887    Uiso  ? C
   C8         1.0     0.895768     0.091079     0.337891    Uiso  ? C
   C9         1.0     0.092780     0.103497     0.661963    Uiso  ? C
   C10        1.0     0.407310     0.395340     0.161857    Uiso  ? C
   C11        1.0     0.895477     0.591810     0.912031    Uiso  ? C
   C12        1.0     0.604122     0.908916     0.412211    Uiso  ? C
   C13        1.0     0.908347     0.395566     0.588031    Uiso  ? C
   C14        1.0     0.591317     0.104151     0.087784    Uiso  ? C
   C15        1.0     0.104366     0.908124     0.337979    Uiso  ? C
   C16        1.0     0.395840     0.591581     0.837723    Uiso  ? C
   C17        1.0     0.623163     0.581161     0.189659    Uiso  ? C
   C18        1.0     0.875255     0.918256     0.689511    Uiso  ? C
   C19        1.0     0.417871     0.126031     0.439432    Uiso  ? C
   C20        1.0     0.081789     0.375272     0.939442    Uiso  ? C
   C21        1.0     0.374688     0.918000     0.060451    Uiso  ? C
   C22        1.0     0.124182     0.581310     0.560347    Uiso  ? C
   C23        1.0     0.582263     0.374403     0.810472    Uiso  ? C
   C24        1.0     0.917799     0.125188     0.310459    Uiso  ? C
   C25        1.0     0.128854     0.080332     0.689204    Uiso  ? C
   C26        1.0     0.373122     0.417109     0.189155    Uiso  ? C
   C27        1.0     0.917847     0.625968     0.939426    Uiso  ? C
   C28        1.0     0.581771     0.875307     0.439665    Uiso  ? C
   C29        1.0     0.873876     0.417492     0.560620    Uiso  ? C
   C30        1.0     0.625054     0.081806     0.060347    Uiso  ? C
   C31        1.0     0.082407     0.873694     0.310602    Uiso  ? C
   C32        1.0     0.418355     0.624894     0.810251    Uiso  ? C
   C33        1.0     0.633492     0.478226     0.198759    Uiso  ? C
   C34        1.0     0.864505     0.021232     0.698537    Uiso  ? C
   C35        1.0     0.520874     0.136870     0.448449    Uiso  ? C
   C36        1.0     0.978778     0.364394     0.948491    Uiso  ? C
   C37        1.0     0.364231     0.020957     0.051377    Uiso  ? C
   C38        1.0     0.134837     0.478329     0.551317    Uiso  ? C
   C39        1.0     0.479423     0.359509     0.801693    Uiso  ? C
   C40        1.0     0.020737     0.135459     0.301324    Uiso  ? C
   C41        1.0     0.138357     0.977019     0.698057    Uiso  ? C
   C42        1.0     0.356371     0.511976     0.201354    Uiso  ? C
   C43        1.0     0.020889     0.636790     0.948424    Uiso  ? C
   C44        1.0     0.478725     0.864791     0.448705    Uiso  ? C
   C45        1.0     0.862333     0.520333     0.551546    Uiso  ? C
   C46        1.0     0.636222     0.978833     0.051347    Uiso  ? C
   C47        1.0     0.979492     0.862101     0.301562    Uiso  ? C
   C48        1.0     0.521447     0.634286     0.801170    Uiso  ? C
   C49        1.0     0.652398     0.457994     0.225339    Uiso  ? C
   C50        1.0     0.845686     0.041665     0.725105    Uiso  ? C
   C51        1.0     0.541244     0.155780     0.475010    Uiso  ? C
   C52        1.0     0.958346     0.345748     0.975071    Uiso  ? C
   C53        1.0     0.345567     0.041304     0.024798    Uiso  ? C
   C54        1.0     0.153393     0.457919     0.524735    Uiso  ? C
   C55        1.0     0.458885     0.341329     0.775112    Uiso  ? C
   C56        1.0     0.040826     0.154816     0.274761    Uiso  ? C
   C57        1.0     0.160030     0.955721     0.724456    Uiso  ? C
   C58        1.0     0.340694     0.538014     0.224916    Uiso  ? C
   C59        1.0     0.041344     0.655585     0.974986    Uiso  ? C
   C60        1.0     0.458258     0.846028     0.475276    Uiso  ? C
   C61        1.0     0.843016     0.540475     0.524989    Uiso  ? C
   C62        1.0     0.654825     0.958383     0.024771    Uiso  ? C
   C63        1.0     0.959389     0.842799     0.275013    Uiso  ? C
   C64        1.0     0.541949     0.652918     0.774593    Uiso  ? C
   C65        1.0     0.662749     0.541624     0.242942    Uiso  ? C
   C66        1.0     0.836122     0.958195     0.742817    Uiso  ? C
   C67        1.0     0.457670     0.165508     0.492695    Uiso  ? C
   C68        1.0     0.041850     0.336420     0.992775    Uiso  ? C
   C69        1.0     0.335701     0.957776     0.007143    Uiso  ? C
   C70        1.0     0.162888     0.541373     0.507021    Uiso  ? C
   C71        1.0     0.541990     0.336118     0.757166    Uiso  ? C
   C72        1.0     0.957065     0.165548     0.257191    Uiso  ? C
   C73        1.0     0.173909     0.038777     0.742018    Uiso  ? C
   C74        1.0     0.335509     0.463170     0.244734    Uiso  ? C
   C75        1.0     0.957839     0.665154     0.992700    Uiso  ? C
   C76        1.0     0.541763     0.836164     0.492955    Uiso  ? C
   C77        1.0     0.833696     0.456846     0.507345    Uiso  ? C
   C78        1.0     0.663759     0.041823     0.007032    Uiso  ? C
   C79        1.0     0.043110     0.833662     0.257333    Uiso  ? C
   C80        1.0     0.458453     0.663929     0.756966    Uiso  ? C
   C81        1.0     0.657549     0.644900     0.233914    Uiso  ? C
   C82        1.0     0.841721     0.854813     0.733868    Uiso  ? C
   C83        1.0     0.354258     0.159972     0.483748    Uiso  ? C
   C84        1.0     0.145274     0.342242     0.983817    Uiso  ? C
   C85        1.0     0.340887     0.854435     0.016139    Uiso  ? C
   C86        1.0     0.157198     0.644751     0.515961    Uiso  ? C
   C87        1.0     0.645437     0.345290     0.765878    Uiso  ? C
   C88        1.0     0.853742     0.160313     0.266249    Uiso  ? C
   C89        1.0     0.169846     0.142369     0.733231    Uiso  ? C
   C90        1.0     0.345479     0.359058     0.235244    Uiso  ? C
   C91        1.0     0.854393     0.659698     0.983770    Uiso  ? C
   C92        1.0     0.645212     0.841593     0.484000    Uiso  ? C
   C93        1.0     0.839955     0.353556     0.516343    Uiso  ? C
   C94        1.0     0.657761     0.145213     0.015949    Uiso  ? C
   C95        1.0     0.146478     0.839916     0.266294    Uiso  ? C
   C96        1.0     0.355019     0.659690     0.765961    Uiso  ? C
   C97        1.0     0.636316     0.663875     0.207440    Uiso  ? C
   C98        1.0     0.862643     0.835654     0.707374    Uiso  ? C
   C99        1.0     0.335155     0.138824     0.457271    Uiso  ? C
   C100       1.0     0.164432     0.363006     0.957310    Uiso  ? C
   C101       1.0     0.361800     0.835347     0.042637    Uiso  ? C
   C102       1.0     0.136502     0.663898     0.542468    Uiso  ? C
   C103       1.0     0.664668     0.365817     0.792378    Uiso  ? C
   C104       1.0     0.834906     0.138711     0.292724    Uiso  ? C
   C105       1.0     0.145781     0.162443     0.706955    Uiso  ? C
   C106       1.0     0.364807     0.337798     0.208709    Uiso  ? C
   C107       1.0     0.835205     0.638719     0.957289    Uiso  ? C
   C108       1.0     0.664414     0.862550     0.457507    Uiso  ? C
   C109       1.0     0.861426     0.334701     0.542824    Uiso  ? C
   C110       1.0     0.637081     0.164387     0.042452    Uiso  ? C
   C111       1.0     0.165262     0.861263     0.292775    Uiso  ? C
   C112       1.0     0.335748     0.638741     0.792449    Uiso  ? C
   C113       1.0     0.667136     0.596712     0.287576    Uiso  ? C
   C114       1.0     0.832349     0.903616     0.787500    Uiso  ? C
   C115       1.0     0.403229     0.168662     0.537409    Uiso  ? C
   C116       1.0     0.096342     0.332806     0.037471    Uiso  ? C
   C117       1.0     0.332217     0.903175     0.962454    Uiso  ? C
   C118       1.0     0.166843     0.595991     0.462345    Uiso  ? C
   C119       1.0     0.595790     0.332952     0.712388    Uiso  ? C
   C120       1.0     0.902364     0.169236     0.212509    Uiso  ? C
   C121       1.0     0.178178     0.090185     0.786776    Uiso  ? C
   C122       1.0     0.334774     0.407602     0.289124    Uiso  ? C
   C123       1.0     0.903439     0.668061     0.037411    Uiso  ? C
   C124       1.0     0.596253     0.832537     0.537627    Uiso  ? C
   C125       1.0     0.830542     0.402606     0.462604    Uiso  ? C
   C126       1.0     0.667075     0.096422     0.962351    Uiso  ? C
   C127       1.0     0.098338     0.830328     0.212716    Uiso  ? C
   C128       1.0     0.403931     0.667570     0.712294    Uiso  ? C
   C129       1.0     0.753232     0.626885     0.302592    Uiso  ? C
   C130       1.0     0.746038     0.872662     0.802357    Uiso  ? C
   C131       1.0     0.372243     0.254409     0.552460    Uiso  ? C
   C132       1.0     0.127833     0.246541     0.052272    Uiso  ? C
   C133       1.0     0.246074     0.872434     0.947532    Uiso  ? C
   C134       1.0     0.253387     0.627450     0.447640    Uiso  ? C
   C135       1.0     0.627939     0.246421     0.697779    Uiso  ? C
   C136       1.0     0.871395     0.254854     0.197402    Uiso  ? C
   C137       1.0     0.254664     0.128882     0.803514    Uiso  ? C
   C138       1.0     0.247144     0.373430     0.302947    Uiso  ? C
   C139       1.0     0.872255     0.753908     0.052397    Uiso  ? C
   C140       1.0     0.627674     0.746388     0.552476    Uiso  ? C
   C141       1.0     0.744969     0.371941     0.447461    Uiso  ? C
   C142       1.0     0.753497     0.128128     0.947639    Uiso  ? C
   C143       1.0     0.133387     0.743446     0.198716    Uiso  ? C
   C144       1.0     0.373349     0.753401     0.697211    Uiso  ? C
   C145       1.0     0.742280     0.708395     0.320607    Uiso  ? C
   C146       1.0     0.757163     0.791132     0.820376    Uiso  ? C
   C147       1.0     0.290959     0.242724     0.570531    Uiso  ? C
   C148       1.0     0.209231     0.257805     0.070307    Uiso  ? C
   C149       1.0     0.257285     0.791100     0.929481    Uiso  ? C
   C150       1.0     0.242423     0.709033     0.429634    Uiso  ? C
   C151       1.0     0.709412     0.257561     0.679736    Uiso  ? C
   C152       1.0     0.790166     0.242970     0.179349    Uiso  ? C
   C153       1.0     0.235228     0.202720     0.819060    Uiso  ? C
   C154       1.0     0.257848     0.290676     0.320613    Uiso  ? C
   C155       1.0     0.790900     0.742243     0.070448    Uiso  ? C
   C156       1.0     0.709120     0.757744     0.570492    Uiso  ? C
   C157       1.0     0.756960     0.290938     0.429349    Uiso  ? C
   C158       1.0     0.742233     0.209628     0.929622    Uiso  ? C
   C159       1.0     0.214967     0.755269     0.180744    Uiso  ? C
   C160       1.0     0.291837     0.742091     0.679209    Uiso  ? C
   C161       1.0     0.646440     0.760162     0.323361    Uiso  ? C
   C162       1.0     0.853347     0.740163     0.823296    Uiso  ? C
   C163       1.0     0.240119     0.146527     0.573314    Uiso  ? C
   C164       1.0     0.259688     0.354105     0.073283    Uiso  ? C
   C165       1.0     0.353407     0.739977     0.926599    Uiso  ? C
   C166       1.0     0.146115     0.759661     0.426607    Uiso  ? C
   C167       1.0     0.759439     0.354014     0.676582    Uiso  ? C
   C168       1.0     0.739440     0.146706     0.176628    Uiso  ? C
   C169       1.0     0.146641     0.261205     0.823627    Uiso  ? C
   C170       1.0     0.354782     0.241741     0.324021    Uiso  ? C
   C171       1.0     0.740201     0.645988     0.073272    Uiso  ? C
   C172       1.0     0.759711     0.853998     0.573394    Uiso  ? C
   C173       1.0     0.853274     0.240052     0.426614    Uiso  ? C
   C174       1.0     0.645787     0.259981     0.926598    Uiso  ? C
   C175       1.0     0.261632     0.852989     0.176969    Uiso  ? C
   C176       1.0     0.240410     0.646178     0.676516    Uiso  ? C
   C177       1.0     0.559937     0.726346     0.308647    Uiso  ? C
   C178       1.0     0.940097     0.774937     0.808789    Uiso  ? C
   C179       1.0     0.274997     0.060289     0.558634    Uiso  ? C
   C180       1.0     0.224380     0.440792     0.058838    Uiso  ? C
   C181       1.0     0.440017     0.774538     0.941162    Uiso  ? C
   C182       1.0     0.059147     0.724364     0.440947    Uiso  ? C
   C183       1.0     0.723338     0.440987     0.690787    Uiso  ? C
   C184       1.0     0.774304     0.060585     0.191360    Uiso  ? C
   C185       1.0     0.064488     0.220968     0.807666    Uiso  ? C
   C186       1.0     0.442639     0.279787     0.310521    Uiso  ? C
   C187       1.0     0.775259     0.559668     0.058654    Uiso  ? C
   C188       1.0     0.724474     0.940582     0.558899    Uiso  ? C
   C189       1.0     0.939382     0.274731     0.441349    Uiso  ? C
   C190       1.0     0.558951     0.224445     0.940953    Uiso  ? C
   C191       1.0     0.223317     0.940066     0.190751    Uiso  ? C
   C192       1.0     0.274871     0.559856     0.691233    Uiso  ? C
   C193       1.0     0.569595     0.644145     0.290892    Uiso  ? C
   C194       1.0     0.930231     0.857163     0.791032    Uiso  ? C
   C195       1.0     0.357078     0.070669     0.540831    Uiso  ? C
   C196       1.0     0.142161     0.430815     0.041086    Uiso  ? C
   C197       1.0     0.430097     0.856655     0.958944    Uiso  ? C
   C198       1.0     0.068835     0.641988     0.458668    Uiso  ? C
   C199       1.0     0.640934     0.431151     0.708516    Uiso  ? C
   C200       1.0     0.856275     0.071177     0.209161    Uiso  ? C
   C201       1.0     0.079078     0.138304     0.790163    Uiso  ? C
   C202       1.0     0.433309     0.363588     0.293206    Uiso  ? C
   C203       1.0     0.857403     0.570036     0.040867    Uiso  ? C
   C204       1.0     0.642199     0.930527     0.541169    Uiso  ? C
   C205       1.0     0.928707     0.356519     0.459201    Uiso  ? C
   C206       1.0     0.568921     0.142106     0.958680    Uiso  ? C
   C207       1.0     0.141105     0.929357     0.208503    Uiso  ? C
   C208       1.0     0.357095     0.569864     0.708976    Uiso  ? C
   C209       1.0     0.636099     0.851930     0.341217    Uiso  ? C
   C210       1.0     0.863688     0.648177     0.841110    Uiso  ? C
   C211       1.0     0.148177     0.135831     0.591153    Uiso  ? C
   C212       1.0     0.351619     0.364533     0.091103    Uiso  ? C
   C213       1.0     0.363691     0.648094     0.908767    Uiso  ? C
   C214       1.0     0.135856     0.851879     0.408867    Uiso  ? C
   C215       1.0     0.851867     0.364319     0.658895    Uiso  ? C
   C216       1.0     0.647619     0.135848     0.158793    Uiso  ? C
   C217       1.0     0.135268     0.353138     0.841089    Uiso  ? C
   C218       1.0     0.364693     0.148363     0.341401    Uiso  ? C
   C219       1.0     0.648215     0.635491     0.091102    Uiso  ? C
   C220       1.0     0.851804     0.864461     0.591160    Uiso  ? C
   C221       1.0     0.864141     0.148102     0.408818    Uiso  ? C
   C222       1.0     0.635314     0.352074     0.908824    Uiso  ? C
   C223       1.0     0.352919     0.864284     0.158984    Uiso  ? C
   C224       1.0     0.148320     0.635765     0.658746    Uiso  ? C
   H1         1.0     0.614790     0.996991     0.529637    Uiso  ? H
   H2         1.0     0.763363     0.015333     0.561661    Uiso  ? H
   H3         1.0     0.589770     0.671344     0.549350    Uiso  ? H
   H4         1.0     0.735686     0.691198     0.582062    Uiso  ? H
   H5         1.0     0.378506     0.840519     0.482653    Uiso  ? H
   H6         1.0     0.414492     0.875607     0.434864    Uiso  ? H
   H7         1.0     0.744153     0.870545     0.450277    Uiso  ? H
   H8         1.0     0.709747     0.831355     0.497734    Uiso  ? H
   H9         1.0     0.289666     0.170201     0.497482    Uiso  ? H
   H10        1.0     0.620967     0.161476     0.482372    Uiso  ? H
   H11        1.0     0.585179     0.126089     0.434612    Uiso  ? H
   H12        1.0     0.255460     0.130626     0.450049    Uiso  ? H
   H13        1.0     0.264703     0.309004     0.582240    Uiso  ? H
   H14        1.0     0.410417     0.329408     0.549454    Uiso  ? H
   H15        1.0     0.235955     0.985549     0.561302    Uiso  ? H
   H16        1.0     0.384171     0.004450     0.529165    Uiso  ? H
   H17        1.0     0.159077     0.378224     0.517374    Uiso  ? H
   H18        1.0     0.167076     0.709292     0.502214    Uiso  ? H
   H19        1.0     0.128402     0.743578     0.549690    Uiso  ? H
   H20        1.0     0.124379     0.414094     0.565173    Uiso  ? H
   H21        1.0     0.984400     0.763327     0.438065    Uiso  ? H
   H22        1.0     0.002075     0.614539     0.470087    Uiso  ? H
   H23        1.0     0.309276     0.735685     0.418183    Uiso  ? H
   H24        1.0     0.328413     0.589434     0.450863    Uiso  ? H
   H25        1.0     0.211185     0.829681     0.252593    Uiso  ? H
   H26        1.0     0.244894     0.869829     0.300015    Uiso  ? H
   H27        1.0     0.085143     0.123815     0.315069    Uiso  ? H
   H28        1.0     0.120452     0.159952     0.267282    Uiso  ? H
   H29        1.0     0.668093     0.709540     0.247582    Uiso  ? H
   H30        1.0     0.657935     0.378364     0.232766    Uiso  ? H
   H31        1.0     0.485569     0.766341     0.311237    Uiso  ? H
   H32        1.0     0.503205     0.618214     0.279139    Uiso  ? H
   H33        1.0     0.764462     0.808569     0.082113    Uiso  ? H
   H34        1.0     0.910298     0.828952     0.049357    Uiso  ? H
   H35        1.0     0.736348     0.484874     0.061353    Uiso  ? H
   H36        1.0     0.884678     0.503785     0.029240    Uiso  ? H
   H37        1.0     0.263157     0.515562     0.061663    Uiso  ? H
   H38        1.0     0.114664     0.497379     0.029606    Uiso  ? H
   H39        1.0     0.235867     0.191144     0.081826    Uiso  ? H
   H40        1.0     0.089970     0.171499     0.049111    Uiso  ? H
   H41        1.0     0.628438     0.743492     0.200158    Uiso  ? H
   H42        1.0     0.622883     0.413885     0.184954    Uiso  ? H
   H43        1.0     0.259705     0.015738     0.187419    Uiso  ? H
   H44        1.0     0.111243     0.996166     0.219506    Uiso  ? H
   H45        1.0     0.245339     0.688059     0.170049    Uiso  ? H
   H46        1.0     0.098427     0.667477     0.202541    Uiso  ? H
   H47        1.0     0.667321     0.209723     0.002180    Uiso  ? H
   H48        1.0     0.628660     0.244060     0.049655    Uiso  ? H
   H49        1.0     0.330554     0.789882     0.002430    Uiso  ? H
   H50        1.0     0.369693     0.755683     0.049896    Uiso  ? H
   H51        1.0     0.830063     0.288880     0.502649    Uiso  ? H
   H52        1.0     0.836666     0.620077     0.517584    Uiso  ? H
   H53        1.0     0.872874     0.584710     0.565340    Uiso  ? H
   H54        1.0     0.870154     0.255113     0.550079    Uiso  ? H
   H55        1.0     0.235347     0.485345     0.688635    Uiso  ? H
   H56        1.0     0.411959     0.828203     0.700155    Uiso  ? H
   H57        1.0     0.265889     0.808466     0.667486    Uiso  ? H
   H58        1.0     0.383825     0.503615     0.720688    Uiso  ? H
   H59        1.0     0.502244     0.114428     0.970094    Uiso  ? H
   H60        1.0     0.484054     0.263115     0.938065    Uiso  ? H
   H61        1.0     0.828637     0.090329     0.950851    Uiso  ? H
   H62        1.0     0.808970     0.236389     0.918147    Uiso  ? H
   H63        1.0     0.209849     0.332445     0.997560    Uiso  ? H
   H64        1.0     0.244163     0.371220     0.950092    Uiso  ? H
   H65        1.0     0.878596     0.339916     0.982432    Uiso  ? H
   H66        1.0     0.914475     0.374838     0.934654    Uiso  ? H
   H67        1.0     0.690464     0.764825     0.831935    Uiso  ? H
   H68        1.0     0.671098     0.911018     0.799270    Uiso  ? H
   H69        1.0     0.255969     0.631725     0.799713    Uiso  ? H
   H70        1.0     0.290522     0.670857     0.752261    Uiso  ? H
   H71        1.0     0.988486     0.258994     0.809395    Uiso  ? H
   H72        1.0     0.014051     0.111103     0.778053    Uiso  ? H
   H73        1.0     0.709893     0.338312     0.751979    Uiso  ? H
   H74        1.0     0.014774     0.735714     0.811560    Uiso  ? H
   H75        1.0     0.585649     0.622777     0.814982    Uiso  ? H
   H76        1.0     0.621702     0.657472     0.767179    Uiso  ? H
   H77        1.0     0.831572     0.790289     0.747608    Uiso  ? H
   H78        1.0     0.870702     0.755964     0.700156    Uiso  ? H
   H79        1.0     0.164859     0.875840     0.731731    Uiso  ? H
   H80        1.0     0.124546     0.913262     0.684266    Uiso  ? H
   H81        1.0     0.183617     0.206334     0.746921    Uiso  ? H
   H82        1.0     0.138785     0.242400     0.699848    Uiso  ? H
   H83        1.0     0.839726     0.121360     0.732458    Uiso  ? H
   H84        1.0     0.875098     0.085454     0.684683    Uiso  ? H
   H85        1.0     0.171151     0.910858     0.950609    Uiso  ? H
   H86        1.0     0.496609     0.883587     0.970511    Uiso  ? H
   H87        1.0     0.514687     0.735267     0.938406    Uiso  ? H
   H88        1.0     0.190736     0.765079     0.917851    Uiso  ? H
   H89        1.0     0.121087     0.661267     0.982336    Uiso  ? H
   H90        1.0     0.085162     0.626095     0.934573    Uiso  ? H
   H91        1.0     0.789836     0.669855     0.997518    Uiso  ? H
   H92        1.0     0.755485     0.630583     0.950081    Uiso  ? H
   H93        1.0     0.827950     0.587958     0.299599    Uiso  ? H
   H94        1.0     0.808828     0.734013     0.332297    Uiso  ? H
   H95        1.0     0.517755     0.241883     0.313681    Uiso  ? H
   H96        1.0     0.500657     0.393452     0.282414    Uiso  ? H
   H97        1.0     0.014239     0.235716     0.438688    Uiso  ? H
   H98        1.0     0.994821     0.383435     0.470918    Uiso  ? H
   H99        1.0     0.690812     0.264899     0.417576    Uiso  ? H
   H100       1.0     0.669851     0.410104     0.450438    Uiso  ? H
   H101       1.0     0.375102     0.085231     0.065188    Uiso  ? H
   H102       1.0     0.340198     0.120980     0.017395    Uiso  ? H
   H103       1.0     0.763873     0.309142     0.167603    Uiso  ? H
   H104       1.0     0.909487     0.329916     0.200352    Uiso  ? H
   H105       1.0     0.883378     0.005085     0.220877    Uiso  ? H
   H106       1.0     0.735360     0.985784     0.188732    Uiso  ? H
   H107       1.0     0.171775     0.410230     0.299368    Uiso  ? H
   H108       1.0     0.190423     0.261823     0.331486    Uiso  ? H
   H109       1.0     0.376936     0.257615     0.202072    Uiso  ? H
   H110       1.0     0.340916     0.294523     0.249209    Uiso  ? H
   H111       1.0     0.755255     0.130776     0.300022    Uiso  ? H
   H112       1.0     0.789029     0.171141     0.252595    Uiso  ? H
   H113       1.0     0.660877     0.878687     0.017428    Uiso  ? H
   H114       1.0     0.626007     0.914617     0.065219    Uiso  ? H
   H115       1.0     0.879751     0.836378     0.267628    Uiso  ? H
   H116       1.0     0.915059     0.872567     0.315378    Uiso  ? H
   H117       1.0     0.761755     0.515877     0.687821    Uiso  ? H
   H118       1.0     0.590527     0.171258     0.701121    Uiso  ? H
   H119       1.0     0.736495     0.190686     0.668369    Uiso  ? H
   H120       1.0     0.612958     0.497970     0.719822    Uiso  ? H
   H121       1.0     0.996767     0.884031     0.779443    Uiso  ? H
   H122       1.0     0.744264     0.376747     0.799432    Uiso  ? H
   H123       1.0     0.379217     0.332051     0.767953    Uiso  ? H
   H124       1.0     0.415324     0.365557     0.815787    Uiso  ? H
   H125       1.0     0.122387     0.634674     0.873890    Uiso  ? H
   H126       1.0     0.622469     0.634353     0.875629    Uiso  ? H
   H127       1.0     0.876532     0.365908     0.874449    Uiso  ? H
   H128       1.0     0.376926     0.366736     0.874633    Uiso  ? H
   H129       1.0     0.134467     0.876745     0.624075    Uiso  ? H
   H130       1.0     0.134466     0.376927     0.625761    Uiso  ? H
   H131       1.0     0.865930     0.123232     0.624466    Uiso  ? H
   H132       1.0     0.865676     0.623164     0.625686    Uiso  ? H
   H133       1.0     0.377055     0.865492     0.374200    Uiso  ? H
   H134       1.0     0.877345     0.865778     0.375658    Uiso  ? H
   H135       1.0     0.123018     0.134258     0.375687    Uiso  ? H
   H136       1.0     0.623130     0.134031     0.374479    Uiso  ? H
   H137       1.0     0.366304     0.623620     0.124896    Uiso  ? H
   H138       1.0     0.365415     0.122589     0.125543    Uiso  ? H
   H139       1.0     0.633456     0.376772     0.124396    Uiso  ? H
   H140       1.0     0.634772     0.877178     0.125549    Uiso  ? H
