
#======================================================================
# CRYSTAL DATA
#----------------------------------------------------------------------
data_VESTA_phase_1

_chemical_name_common                  'cau-21-bpdc                           '
_cell_length_a                         17.345457
_cell_length_b                         17.345457
_cell_length_c                         23.962692
_cell_angle_alpha                      90.000000
_cell_angle_beta                       90.000000
_cell_angle_gamma                      90.000000
_cell_volume                           7209.532561
_space_group_name_H-M_alt              'P 1'
_space_group_IT_number                 1

loop_
_space_group_symop_operation_xyz
   'x, y, z'

loop_
   _atom_site_label
   _atom_site_occupancy
   _atom_site_fract_x
   _atom_site_fract_y
   _atom_site_fract_z
   _atom_site_adp_type
   _atom_site_U_iso_or_equiv
   _atom_site_type_symbol
   O1         1.0     0.800244     0.848051     0.576859    Uiso  ? O
   O2         1.0     0.199756     0.151949     0.576859    Uiso  ? O
   O3         1.0     0.151949     0.800244     0.576859    Uiso  ? O
   O4         1.0     0.848051     0.199756     0.576859    Uiso  ? O
   O5         1.0     0.199756     0.848051     0.423141    Uiso  ? O
   O6         1.0     0.800244     0.151949     0.423141    Uiso  ? O
   O7         1.0     0.848051     0.800244     0.423141    Uiso  ? O
   O8         1.0     0.151949     0.199756     0.423141    Uiso  ? O
   O9         1.0     0.300244     0.348051     0.076859    Uiso  ? O
   O10        1.0     0.699756     0.651949     0.076859    Uiso  ? O
   O11        1.0     0.651949     0.300244     0.076859    Uiso  ? O
   O12        1.0     0.348051     0.699756     0.076859    Uiso  ? O
   O13        1.0     0.699756     0.348051     0.923141    Uiso  ? O
   O14        1.0     0.300244     0.651949     0.923141    Uiso  ? O
   O15        1.0     0.348051     0.300244     0.923141    Uiso  ? O
   O16        1.0     0.651949     0.699756     0.923141    Uiso  ? O
   O17        1.0     0.744998     0.966457     0.576097    Uiso  ? O
   O18        1.0     0.255002     0.033543     0.576097    Uiso  ? O
   O19        1.0     0.033543     0.744998     0.576097    Uiso  ? O
   O20        1.0     0.966457     0.255002     0.576097    Uiso  ? O
   O21        1.0     0.255002     0.966457     0.423903    Uiso  ? O
   O22        1.0     0.744998     0.033543     0.423903    Uiso  ? O
   O23        1.0     0.966457     0.744998     0.423903    Uiso  ? O
   O24        1.0     0.033543     0.255002     0.423903    Uiso  ? O
   O25        1.0     0.244998     0.466457     0.076097    Uiso  ? O
   O26        1.0     0.755002     0.533543     0.076097    Uiso  ? O
   O27        1.0     0.533543     0.244998     0.076097    Uiso  ? O
   O28        1.0     0.466457     0.755002     0.076097    Uiso  ? O
   O29        1.0     0.755002     0.466457     0.923903    Uiso  ? O
   O30        1.0     0.244998     0.533543     0.923903    Uiso  ? O
   O31        1.0     0.466457     0.244998     0.923903    Uiso  ? O
   O32        1.0     0.533543     0.755002     0.923903    Uiso  ? O
   O33        1.0     0.664676     0.931567     0.480525    Uiso  ? O
   O34        1.0     0.335324     0.068433     0.480525    Uiso  ? O
   O35        1.0     0.068433     0.664676     0.480525    Uiso  ? O
   O36        1.0     0.931567     0.335324     0.480525    Uiso  ? O
   O37        1.0     0.335324     0.931567     0.519475    Uiso  ? O
   O38        1.0     0.664676     0.068433     0.519475    Uiso  ? O
   O39        1.0     0.931567     0.664676     0.519475    Uiso  ? O
   O40        1.0     0.068433     0.335324     0.519475    Uiso  ? O
   O41        1.0     0.164676     0.431567     0.980525    Uiso  ? O
   O42        1.0     0.835324     0.568433     0.980525    Uiso  ? O
   O43        1.0     0.568433     0.164676     0.980525    Uiso  ? O
   O44        1.0     0.431567     0.835324     0.980525    Uiso  ? O
   O45        1.0     0.835324     0.431567     0.019475    Uiso  ? O
   O46        1.0     0.164676     0.568433     0.019475    Uiso  ? O
   O47        1.0     0.431567     0.164676     0.019475    Uiso  ? O
   O48        1.0     0.568433     0.835324     0.019475    Uiso  ? O
   O49        1.0     0.717094     0.811907     0.477472    Uiso  ? O
   O50        1.0     0.282906     0.188093     0.477472    Uiso  ? O
   O51        1.0     0.188093     0.717094     0.477472    Uiso  ? O
   O52        1.0     0.811907     0.282906     0.477472    Uiso  ? O
   O53        1.0     0.282906     0.811907     0.522528    Uiso  ? O
   O54        1.0     0.717094     0.188093     0.522528    Uiso  ? O
   O55        1.0     0.811907     0.717094     0.522528    Uiso  ? O
   O56        1.0     0.188093     0.282906     0.522528    Uiso  ? O
   O57        1.0     0.217094     0.311907     0.977472    Uiso  ? O
   O58        1.0     0.782906     0.688093     0.977472    Uiso  ? O
   O59        1.0     0.688093     0.217094     0.977472    Uiso  ? O
   O60        1.0     0.311907     0.782906     0.977472    Uiso  ? O
   O61        1.0     0.782906     0.311907     0.022528    Uiso  ? O
   O62        1.0     0.217094     0.688093     0.022528    Uiso  ? O
   O63        1.0     0.311907     0.217094     0.022528    Uiso  ? O
   O64        1.0     0.688093     0.782906     0.022528    Uiso  ? O
   O65        1.0     0.821819     0.926913     0.482750    Uiso  ? O
   O66        1.0     0.178181     0.073087     0.482750    Uiso  ? O
   O67        1.0     0.073087     0.821819     0.482750    Uiso  ? O
   O68        1.0     0.926913     0.178181     0.482750    Uiso  ? O
   O69        1.0     0.178181     0.926913     0.517250    Uiso  ? O
   O70        1.0     0.821819     0.073087     0.517250    Uiso  ? O
   O71        1.0     0.926913     0.821819     0.517250    Uiso  ? O
   O72        1.0     0.073087     0.178181     0.517250    Uiso  ? O
   O73        1.0     0.321819     0.426913     0.982750    Uiso  ? O
   O74        1.0     0.678181     0.573087     0.982750    Uiso  ? O
   O75        1.0     0.573087     0.321819     0.982750    Uiso  ? O
   O76        1.0     0.426913     0.678181     0.982750    Uiso  ? O
   O77        1.0     0.678181     0.426913     0.017250    Uiso  ? O
   O78        1.0     0.321819     0.573087     0.017250    Uiso  ? O
   O79        1.0     0.426913     0.321819     0.017250    Uiso  ? O
   O80        1.0     0.573087     0.678181     0.017250    Uiso  ? O
   O81        1.0     0.337844     0.749343     0.364949    Uiso  ? O
   O82        1.0     0.662156     0.250657     0.364949    Uiso  ? O
   O83        1.0     0.250657     0.337844     0.364949    Uiso  ? O
   O84        1.0     0.749343     0.662156     0.364949    Uiso  ? O
   O85        1.0     0.662156     0.749343     0.635051    Uiso  ? O
   O86        1.0     0.337844     0.250657     0.635051    Uiso  ? O
   O87        1.0     0.749343     0.337844     0.635051    Uiso  ? O
   O88        1.0     0.250657     0.662156     0.635051    Uiso  ? O
   O89        1.0     0.837844     0.249343     0.864949    Uiso  ? O
   O90        1.0     0.162156     0.750657     0.864949    Uiso  ? O
   O91        1.0     0.750657     0.837844     0.864949    Uiso  ? O
   O92        1.0     0.249343     0.162156     0.864949    Uiso  ? O
   O93        1.0     0.162156     0.249343     0.135051    Uiso  ? O
   O94        1.0     0.837844     0.750657     0.135051    Uiso  ? O
   O95        1.0     0.249343     0.837844     0.135051    Uiso  ? O
   O96        1.0     0.750657     0.162156     0.135051    Uiso  ? O
   C1         1.0     0.400401     0.756321     0.340839    Uiso  ? C
   C2         1.0     0.599599     0.243679     0.340839    Uiso  ? C
   C3         1.0     0.243679     0.400401     0.340839    Uiso  ? C
   C4         1.0     0.756321     0.599599     0.340839    Uiso  ? C
   C5         1.0     0.599599     0.756321     0.659161    Uiso  ? C
   C6         1.0     0.400401     0.243679     0.659161    Uiso  ? C
   C7         1.0     0.756321     0.400401     0.659161    Uiso  ? C
   C8         1.0     0.243679     0.599599     0.659161    Uiso  ? C
   C9         1.0     0.900401     0.256321     0.840839    Uiso  ? C
   C10        1.0     0.099599     0.743679     0.840839    Uiso  ? C
   C11        1.0     0.743679     0.900401     0.840839    Uiso  ? C
   C12        1.0     0.256321     0.099599     0.840839    Uiso  ? C
   C13        1.0     0.099599     0.256321     0.159161    Uiso  ? C
   C14        1.0     0.900401     0.743679     0.159161    Uiso  ? C
   C15        1.0     0.256321     0.900401     0.159161    Uiso  ? C
   C16        1.0     0.743679     0.099599     0.159161    Uiso  ? C
   C17        1.0     0.756690     0.906839     0.779498    Uiso  ? C
   C18        1.0     0.243310     0.093161     0.779498    Uiso  ? C
   C19        1.0     0.093161     0.756690     0.779498    Uiso  ? C
   C20        1.0     0.906839     0.243310     0.779498    Uiso  ? C
   C21        1.0     0.243310     0.906839     0.220502    Uiso  ? C
   C22        1.0     0.756690     0.093161     0.220502    Uiso  ? C
   C23        1.0     0.906839     0.756690     0.220502    Uiso  ? C
   C24        1.0     0.093161     0.243310     0.220502    Uiso  ? C
   C25        1.0     0.256690     0.406839     0.279498    Uiso  ? C
   C26        1.0     0.743310     0.593161     0.279498    Uiso  ? C
   C27        1.0     0.593161     0.256690     0.279498    Uiso  ? C
   C28        1.0     0.406839     0.743310     0.279498    Uiso  ? C
   C29        1.0     0.743310     0.406839     0.720502    Uiso  ? C
   C30        1.0     0.256690     0.593161     0.720502    Uiso  ? C
   C31        1.0     0.406839     0.256690     0.720502    Uiso  ? C
   C32        1.0     0.593161     0.743310     0.720502    Uiso  ? C
   C33        1.0     0.792612     0.845258     0.751594    Uiso  ? C
   C34        1.0     0.207388     0.154742     0.751594    Uiso  ? C
   C35        1.0     0.154742     0.792612     0.751594    Uiso  ? C
   C36        1.0     0.845258     0.207388     0.751594    Uiso  ? C
   C37        1.0     0.207388     0.845258     0.248406    Uiso  ? C
   C38        1.0     0.792612     0.154742     0.248406    Uiso  ? C
   C39        1.0     0.845258     0.792612     0.248406    Uiso  ? C
   C40        1.0     0.154742     0.207388     0.248406    Uiso  ? C
   C41        1.0     0.292612     0.345258     0.251594    Uiso  ? C
   C42        1.0     0.707388     0.654742     0.251594    Uiso  ? C
   C43        1.0     0.654742     0.292612     0.251594    Uiso  ? C
   C44        1.0     0.345258     0.707388     0.251594    Uiso  ? C
   C45        1.0     0.707388     0.345258     0.748406    Uiso  ? C
   C46        1.0     0.292612     0.654742     0.748406    Uiso  ? C
   C47        1.0     0.345258     0.292612     0.748406    Uiso  ? C
   C48        1.0     0.654742     0.707388     0.748406    Uiso  ? C
   C49        1.0     0.798120     0.845232     0.693771    Uiso  ? C
   C50        1.0     0.201880     0.154768     0.693771    Uiso  ? C
   C51        1.0     0.154768     0.798120     0.693771    Uiso  ? C
   C52        1.0     0.845232     0.201880     0.693771    Uiso  ? C
   C53        1.0     0.201880     0.845232     0.306229    Uiso  ? C
   C54        1.0     0.798120     0.154768     0.306229    Uiso  ? C
   C55        1.0     0.845232     0.798120     0.306229    Uiso  ? C
   C56        1.0     0.154768     0.201880     0.306229    Uiso  ? C
   C57        1.0     0.298120     0.345232     0.193771    Uiso  ? C
   C58        1.0     0.701880     0.654768     0.193771    Uiso  ? C
   C59        1.0     0.654768     0.298120     0.193771    Uiso  ? C
   C60        1.0     0.345232     0.701880     0.193771    Uiso  ? C
   C61        1.0     0.701880     0.345232     0.806229    Uiso  ? C
   C62        1.0     0.298120     0.654768     0.806229    Uiso  ? C
   C63        1.0     0.345232     0.298120     0.806229    Uiso  ? C
   C64        1.0     0.654768     0.701880     0.806229    Uiso  ? C
   C65        1.0     0.767707     0.906980     0.662965    Uiso  ? C
   C66        1.0     0.232294     0.093020     0.662965    Uiso  ? C
   C67        1.0     0.093020     0.767707     0.662965    Uiso  ? C
   C68        1.0     0.906980     0.232294     0.662965    Uiso  ? C
   C69        1.0     0.232294     0.906980     0.337035    Uiso  ? C
   C70        1.0     0.767707     0.093020     0.337035    Uiso  ? C
   C71        1.0     0.906980     0.767707     0.337035    Uiso  ? C
   C72        1.0     0.093020     0.232294     0.337035    Uiso  ? C
   C73        1.0     0.267707     0.406980     0.162965    Uiso  ? C
   C74        1.0     0.732293     0.593020     0.162965    Uiso  ? C
   C75        1.0     0.593020     0.267707     0.162965    Uiso  ? C
   C76        1.0     0.406980     0.732293     0.162965    Uiso  ? C
   C77        1.0     0.732293     0.406980     0.837035    Uiso  ? C
   C78        1.0     0.267707     0.593020     0.837035    Uiso  ? C
   C79        1.0     0.406980     0.267707     0.837035    Uiso  ? C
   C80        1.0     0.593020     0.732293     0.837035    Uiso  ? C
   C81        1.0     0.733087     0.969236     0.690588    Uiso  ? C
   C82        1.0     0.266913     0.030764     0.690588    Uiso  ? C
   C83        1.0     0.030764     0.733087     0.690588    Uiso  ? C
   C84        1.0     0.969236     0.266913     0.690588    Uiso  ? C
   C85        1.0     0.266913     0.969236     0.309412    Uiso  ? C
   C86        1.0     0.733087     0.030764     0.309412    Uiso  ? C
   C87        1.0     0.969236     0.733087     0.309412    Uiso  ? C
   C88        1.0     0.030764     0.266913     0.309412    Uiso  ? C
   C89        1.0     0.233087     0.469236     0.190588    Uiso  ? C
   C90        1.0     0.766913     0.530764     0.190588    Uiso  ? C
   C91        1.0     0.530764     0.233087     0.190588    Uiso  ? C
   C92        1.0     0.469236     0.766913     0.190588    Uiso  ? C
   C93        1.0     0.766913     0.469236     0.809412    Uiso  ? C
   C94        1.0     0.233087     0.530764     0.809412    Uiso  ? C
   C95        1.0     0.469236     0.233087     0.809412    Uiso  ? C
   C96        1.0     0.530764     0.766913     0.809412    Uiso  ? C
   C97        1.0     0.727641     0.969210     0.748513    Uiso  ? C
   C98        1.0     0.272359     0.030790     0.748513    Uiso  ? C
   C99        1.0     0.030790     0.727641     0.748513    Uiso  ? C
   C100       1.0     0.969210     0.272359     0.748513    Uiso  ? C
   C101       1.0     0.272359     0.969210     0.251487    Uiso  ? C
   C102       1.0     0.727641     0.030790     0.251487    Uiso  ? C
   C103       1.0     0.969210     0.727641     0.251487    Uiso  ? C
   C104       1.0     0.030790     0.272359     0.251487    Uiso  ? C
   C105       1.0     0.227641     0.469210     0.248513    Uiso  ? C
   C106       1.0     0.772359     0.530790     0.248513    Uiso  ? C
   C107       1.0     0.530790     0.227641     0.248513    Uiso  ? C
   C108       1.0     0.469210     0.772359     0.248513    Uiso  ? C
   C109       1.0     0.772359     0.469210     0.751487    Uiso  ? C
   C110       1.0     0.227641     0.530790     0.751487    Uiso  ? C
   C111       1.0     0.469210     0.227641     0.751487    Uiso  ? C
   C112       1.0     0.530790     0.772359     0.751487    Uiso  ? C
   C113       1.0     0.771244     0.906712     0.600685    Uiso  ? C
   C114       1.0     0.228756     0.093288     0.600685    Uiso  ? C
   C115       1.0     0.093288     0.771244     0.600685    Uiso  ? C
   C116       1.0     0.906712     0.228756     0.600685    Uiso  ? C
   C117       1.0     0.228756     0.906712     0.399315    Uiso  ? C
   C118       1.0     0.771244     0.093288     0.399315    Uiso  ? C
   C119       1.0     0.906712     0.771244     0.399315    Uiso  ? C
   C120       1.0     0.093288     0.228756     0.399315    Uiso  ? C
   C121       1.0     0.271244     0.406712     0.100685    Uiso  ? C
   C122       1.0     0.728756     0.593288     0.100685    Uiso  ? C
   C123       1.0     0.593288     0.271244     0.100685    Uiso  ? C
   C124       1.0     0.406712     0.728756     0.100685    Uiso  ? C
   C125       1.0     0.728756     0.406712     0.899315    Uiso  ? C
   C126       1.0     0.271244     0.593288     0.899315    Uiso  ? C
   C127       1.0     0.406712     0.271244     0.899315    Uiso  ? C
   C128       1.0     0.593288     0.728756     0.899315    Uiso  ? C
   C129       1.0     0.528911     0.877333     0.432535    Uiso  ? C
   C130       1.0     0.471089     0.122667     0.432535    Uiso  ? C
   C131       1.0     0.122667     0.528911     0.432535    Uiso  ? C
   C132       1.0     0.877333     0.471089     0.432535    Uiso  ? C
   C133       1.0     0.471089     0.877333     0.567465    Uiso  ? C
   C134       1.0     0.528911     0.122667     0.567465    Uiso  ? C
   C135       1.0     0.877333     0.528911     0.567465    Uiso  ? C
   C136       1.0     0.122667     0.471089     0.567465    Uiso  ? C
   C137       1.0     0.028911     0.377333     0.932535    Uiso  ? C
   C138       1.0     0.971089     0.622667     0.932535    Uiso  ? C
   C139       1.0     0.622667     0.028911     0.932535    Uiso  ? C
   C140       1.0     0.377333     0.971089     0.932535    Uiso  ? C
   C141       1.0     0.971089     0.377333     0.067465    Uiso  ? C
   C142       1.0     0.028911     0.622667     0.067465    Uiso  ? C
   C143       1.0     0.377333     0.028911     0.067465    Uiso  ? C
   C144       1.0     0.622667     0.971089     0.067465    Uiso  ? C
   C145       1.0     0.464975     0.851127     0.403232    Uiso  ? C
   C146       1.0     0.535025     0.148873     0.403232    Uiso  ? C
   C147       1.0     0.148873     0.464975     0.403232    Uiso  ? C
   C148       1.0     0.851127     0.535025     0.403232    Uiso  ? C
   C149       1.0     0.535025     0.851127     0.596768    Uiso  ? C
   C150       1.0     0.464975     0.148873     0.596768    Uiso  ? C
   C151       1.0     0.851127     0.464975     0.596768    Uiso  ? C
   C152       1.0     0.148873     0.535025     0.596768    Uiso  ? C
   C153       1.0     0.964975     0.351127     0.903232    Uiso  ? C
   C154       1.0     0.035025     0.648873     0.903232    Uiso  ? C
   C155       1.0     0.648873     0.964975     0.903232    Uiso  ? C
   C156       1.0     0.351127     0.035025     0.903232    Uiso  ? C
   C157       1.0     0.035025     0.351127     0.096768    Uiso  ? C
   C158       1.0     0.964975     0.648873     0.096768    Uiso  ? C
   C159       1.0     0.351127     0.964975     0.096768    Uiso  ? C
   C160       1.0     0.648873     0.035025     0.096768    Uiso  ? C
   C161       1.0     0.469742     0.782300     0.372674    Uiso  ? C
   C162       1.0     0.530258     0.217700     0.372674    Uiso  ? C
   C163       1.0     0.217700     0.469742     0.372674    Uiso  ? C
   C164       1.0     0.782300     0.530258     0.372674    Uiso  ? C
   C165       1.0     0.530258     0.782300     0.627326    Uiso  ? C
   C166       1.0     0.469742     0.217700     0.627326    Uiso  ? C
   C167       1.0     0.782300     0.469742     0.627326    Uiso  ? C
   C168       1.0     0.217700     0.530258     0.627326    Uiso  ? C
   C169       1.0     0.969742     0.282300     0.872674    Uiso  ? C
   C170       1.0     0.030258     0.717700     0.872674    Uiso  ? C
   C171       1.0     0.717700     0.969742     0.872674    Uiso  ? C
   C172       1.0     0.282300     0.030258     0.872674    Uiso  ? C
   C173       1.0     0.030258     0.282300     0.127326    Uiso  ? C
   C174       1.0     0.969742     0.717700     0.127326    Uiso  ? C
   C175       1.0     0.282300     0.969742     0.127326    Uiso  ? C
   C176       1.0     0.717700     0.030258     0.127326    Uiso  ? C
   C177       1.0     0.537888     0.738715     0.373427    Uiso  ? C
   C178       1.0     0.462112     0.261285     0.373427    Uiso  ? C
   C179       1.0     0.261285     0.537888     0.373427    Uiso  ? C
   C180       1.0     0.738715     0.462112     0.373427    Uiso  ? C
   C181       1.0     0.462112     0.738715     0.626573    Uiso  ? C
   C182       1.0     0.537888     0.261285     0.626573    Uiso  ? C
   C183       1.0     0.738715     0.537888     0.626573    Uiso  ? C
   C184       1.0     0.261285     0.462112     0.626573    Uiso  ? C
   C185       1.0     0.037888     0.238715     0.873427    Uiso  ? C
   C186       1.0     0.962112     0.761285     0.873427    Uiso  ? C
   C187       1.0     0.761285     0.037888     0.873427    Uiso  ? C
   C188       1.0     0.238715     0.962112     0.873427    Uiso  ? C
   C189       1.0     0.962112     0.238715     0.126573    Uiso  ? C
   C190       1.0     0.037888     0.761285     0.126573    Uiso  ? C
   C191       1.0     0.238715     0.037888     0.126573    Uiso  ? C
   C192       1.0     0.761285     0.962112     0.126573    Uiso  ? C
   C193       1.0     0.600210     0.762451     0.405836    Uiso  ? C
   C194       1.0     0.399790     0.237549     0.405836    Uiso  ? C
   C195       1.0     0.237549     0.600210     0.405836    Uiso  ? C
   C196       1.0     0.762451     0.399790     0.405836    Uiso  ? C
   C197       1.0     0.399790     0.762451     0.594164    Uiso  ? C
   C198       1.0     0.600210     0.237549     0.594164    Uiso  ? C
   C199       1.0     0.762451     0.600210     0.594164    Uiso  ? C
   C200       1.0     0.237549     0.399790     0.594164    Uiso  ? C
   C201       1.0     0.100210     0.262451     0.905836    Uiso  ? C
   C202       1.0     0.899790     0.737549     0.905836    Uiso  ? C
   C203       1.0     0.737549     0.100210     0.905836    Uiso  ? C
   C204       1.0     0.262451     0.899790     0.905836    Uiso  ? C
   C205       1.0     0.899790     0.262451     0.094164    Uiso  ? C
   C206       1.0     0.100210     0.737549     0.094164    Uiso  ? C
   C207       1.0     0.262451     0.100210     0.094164    Uiso  ? C
   C208       1.0     0.737549     0.899790     0.094164    Uiso  ? C
   C209       1.0     0.596193     0.832597     0.434734    Uiso  ? C
   C210       1.0     0.403807     0.167403     0.434734    Uiso  ? C
   C211       1.0     0.167403     0.596193     0.434734    Uiso  ? C
   C212       1.0     0.832597     0.403807     0.434734    Uiso  ? C
   C213       1.0     0.403807     0.832597     0.565266    Uiso  ? C
   C214       1.0     0.596193     0.167403     0.565266    Uiso  ? C
   C215       1.0     0.832597     0.596193     0.565266    Uiso  ? C
   C216       1.0     0.167403     0.403807     0.565266    Uiso  ? C
   C217       1.0     0.096193     0.332597     0.934734    Uiso  ? C
   C218       1.0     0.903807     0.667403     0.934734    Uiso  ? C
   C219       1.0     0.667403     0.096193     0.934734    Uiso  ? C
   C220       1.0     0.332597     0.903807     0.934734    Uiso  ? C
   C221       1.0     0.903807     0.332597     0.065266    Uiso  ? C
   C222       1.0     0.096193     0.667403     0.065266    Uiso  ? C
   C223       1.0     0.332597     0.096193     0.065266    Uiso  ? C
   C224       1.0     0.667403     0.903807     0.065266    Uiso  ? C
   C225       1.0     0.664392     0.860538     0.466686    Uiso  ? C
   C226       1.0     0.335608     0.139462     0.466686    Uiso  ? C
   C227       1.0     0.139462     0.664392     0.466686    Uiso  ? C
   C228       1.0     0.860538     0.335608     0.466686    Uiso  ? C
   C229       1.0     0.335608     0.860538     0.533314    Uiso  ? C
   C230       1.0     0.664392     0.139462     0.533314    Uiso  ? C
   C231       1.0     0.860538     0.664392     0.533314    Uiso  ? C
   C232       1.0     0.139462     0.335608     0.533314    Uiso  ? C
   C233       1.0     0.164392     0.360538     0.966686    Uiso  ? C
   C234       1.0     0.835608     0.639462     0.966686    Uiso  ? C
   C235       1.0     0.639462     0.164392     0.966686    Uiso  ? C
   C236       1.0     0.360538     0.835608     0.966686    Uiso  ? C
   C237       1.0     0.835608     0.360538     0.033314    Uiso  ? C
   C238       1.0     0.164392     0.639462     0.033314    Uiso  ? C
   C239       1.0     0.360538     0.164392     0.033314    Uiso  ? C
   C240       1.0     0.639462     0.835608     0.033314    Uiso  ? C
   H1         1.0     0.814394     0.797269     0.776395    Uiso  ? H
   H2         1.0     0.185606     0.202731     0.776395    Uiso  ? H
   H3         1.0     0.202731     0.814394     0.776395    Uiso  ? H
   H4         1.0     0.797269     0.185606     0.776395    Uiso  ? H
   H5         1.0     0.185606     0.797269     0.223605    Uiso  ? H
   H6         1.0     0.814394     0.202731     0.223605    Uiso  ? H
   H7         1.0     0.797269     0.814394     0.223605    Uiso  ? H
   H8         1.0     0.202731     0.185606     0.223605    Uiso  ? H
   H9         1.0     0.314394     0.297269     0.276395    Uiso  ? H
   H10        1.0     0.685606     0.702731     0.276395    Uiso  ? H
   H11        1.0     0.702731     0.314394     0.276395    Uiso  ? H
   H12        1.0     0.297269     0.685606     0.276395    Uiso  ? H
   H13        1.0     0.685606     0.297269     0.723605    Uiso  ? H
   H14        1.0     0.314394     0.702731     0.723605    Uiso  ? H
   H15        1.0     0.297269     0.314394     0.723605    Uiso  ? H
   H16        1.0     0.702731     0.685606     0.723605    Uiso  ? H
   H17        1.0     0.824303     0.797280     0.671352    Uiso  ? H
   H18        1.0     0.175697     0.202720     0.671352    Uiso  ? H
   H19        1.0     0.202720     0.824303     0.671352    Uiso  ? H
   H20        1.0     0.797280     0.175697     0.671352    Uiso  ? H
   H21        1.0     0.175697     0.797280     0.328648    Uiso  ? H
   H22        1.0     0.824303     0.202720     0.328648    Uiso  ? H
   H23        1.0     0.797280     0.824303     0.328648    Uiso  ? H
   H24        1.0     0.202720     0.175697     0.328648    Uiso  ? H
   H25        1.0     0.324303     0.297280     0.171352    Uiso  ? H
   H26        1.0     0.675697     0.702720     0.171352    Uiso  ? H
   H27        1.0     0.702720     0.324303     0.171352    Uiso  ? H
   H28        1.0     0.297280     0.675697     0.171352    Uiso  ? H
   H29        1.0     0.675697     0.297280     0.828648    Uiso  ? H
   H30        1.0     0.324303     0.702720     0.828648    Uiso  ? H
   H31        1.0     0.297280     0.324303     0.828648    Uiso  ? H
   H32        1.0     0.702720     0.675697     0.828648    Uiso  ? H
   H33        1.0     0.709800     0.016594     0.665913    Uiso  ? H
   H34        1.0     0.290200     0.983406     0.665913    Uiso  ? H
   H35        1.0     0.983406     0.709800     0.665913    Uiso  ? H
   H36        1.0     0.016594     0.290200     0.665913    Uiso  ? H
   H37        1.0     0.290200     0.016594     0.334087    Uiso  ? H
   H38        1.0     0.709800     0.983406     0.334087    Uiso  ? H
   H39        1.0     0.016594     0.709800     0.334087    Uiso  ? H
   H40        1.0     0.983406     0.290200     0.334087    Uiso  ? H
   H41        1.0     0.209800     0.516594     0.165913    Uiso  ? H
   H42        1.0     0.790200     0.483406     0.165913    Uiso  ? H
   H43        1.0     0.483406     0.209800     0.165913    Uiso  ? H
   H44        1.0     0.516594     0.790200     0.165913    Uiso  ? H
   H45        1.0     0.790200     0.516594     0.834087    Uiso  ? H
   H46        1.0     0.209800     0.483406     0.834087    Uiso  ? H
   H47        1.0     0.516594     0.209800     0.834087    Uiso  ? H
   H48        1.0     0.483406     0.790200     0.834087    Uiso  ? H
   H49        1.0     0.699293     0.016774     0.770024    Uiso  ? H
   H50        1.0     0.300707     0.983226     0.770024    Uiso  ? H
   H51        1.0     0.983226     0.699293     0.770024    Uiso  ? H
   H52        1.0     0.016774     0.300707     0.770024    Uiso  ? H
   H53        1.0     0.300707     0.016774     0.229976    Uiso  ? H
   H54        1.0     0.699293     0.983226     0.229976    Uiso  ? H
   H55        1.0     0.016774     0.699293     0.229976    Uiso  ? H
   H56        1.0     0.983226     0.300707     0.229976    Uiso  ? H
   H57        1.0     0.199293     0.516774     0.270024    Uiso  ? H
   H58        1.0     0.800707     0.483226     0.270024    Uiso  ? H
   H59        1.0     0.483226     0.199293     0.270024    Uiso  ? H
   H60        1.0     0.516774     0.800707     0.270024    Uiso  ? H
   H61        1.0     0.800707     0.516774     0.729976    Uiso  ? H
   H62        1.0     0.199293     0.483226     0.729976    Uiso  ? H
   H63        1.0     0.516774     0.199293     0.729976    Uiso  ? H
   H64        1.0     0.483226     0.800707     0.729976    Uiso  ? H
   H65        1.0     0.527567     0.932266     0.454474    Uiso  ? H
   H66        1.0     0.472433     0.067734     0.454474    Uiso  ? H
   H67        1.0     0.067734     0.527567     0.454474    Uiso  ? H
   H68        1.0     0.932266     0.472433     0.454474    Uiso  ? H
   H69        1.0     0.472433     0.932266     0.545525    Uiso  ? H
   H70        1.0     0.527567     0.067734     0.545525    Uiso  ? H
   H71        1.0     0.932266     0.527567     0.545525    Uiso  ? H
   H72        1.0     0.067734     0.472433     0.545525    Uiso  ? H
   H73        1.0     0.027567     0.432266     0.954475    Uiso  ? H
   H74        1.0     0.972433     0.567734     0.954475    Uiso  ? H
   H75        1.0     0.567734     0.027567     0.954475    Uiso  ? H
   H76        1.0     0.432266     0.972433     0.954475    Uiso  ? H
   H77        1.0     0.972433     0.432266     0.045526    Uiso  ? H
   H78        1.0     0.027567     0.567734     0.045526    Uiso  ? H
   H79        1.0     0.432266     0.027567     0.045526    Uiso  ? H
   H80        1.0     0.567734     0.972433     0.045526    Uiso  ? H
   H81        1.0     0.411534     0.884246     0.402908    Uiso  ? H
   H82        1.0     0.588466     0.115754     0.402908    Uiso  ? H
   H83        1.0     0.115754     0.411534     0.402908    Uiso  ? H
   H84        1.0     0.884246     0.588466     0.402908    Uiso  ? H
   H85        1.0     0.588466     0.884246     0.597092    Uiso  ? H
   H86        1.0     0.411534     0.115754     0.597092    Uiso  ? H
   H87        1.0     0.884246     0.411534     0.597092    Uiso  ? H
   H88        1.0     0.115754     0.588466     0.597092    Uiso  ? H
   H89        1.0     0.911534     0.384246     0.902908    Uiso  ? H
   H90        1.0     0.088466     0.615754     0.902908    Uiso  ? H
   H91        1.0     0.615754     0.911534     0.902908    Uiso  ? H
   H92        1.0     0.384246     0.088466     0.902908    Uiso  ? H
   H93        1.0     0.088466     0.384246     0.097092    Uiso  ? H
   H94        1.0     0.911534     0.615754     0.097092    Uiso  ? H
   H95        1.0     0.384246     0.911534     0.097092    Uiso  ? H
   H96        1.0     0.615754     0.088466     0.097092    Uiso  ? H
   H97        1.0     0.541610     0.685338     0.349437    Uiso  ? H
   H98        1.0     0.458390     0.314662     0.349437    Uiso  ? H
   H99        1.0     0.314662     0.541610     0.349437    Uiso  ? H
   H100       1.0     0.685338     0.458390     0.349437    Uiso  ? H
   H101       1.0     0.458390     0.685338     0.650563    Uiso  ? H
   H102       1.0     0.541610     0.314662     0.650563    Uiso  ? H
   H103       1.0     0.685338     0.541610     0.650563    Uiso  ? H
   H104       1.0     0.314662     0.458390     0.650563    Uiso  ? H
   H105       1.0     0.041610     0.185338     0.849437    Uiso  ? H
   H106       1.0     0.958390     0.814662     0.849437    Uiso  ? H
   H107       1.0     0.814662     0.041610     0.849437    Uiso  ? H
   H108       1.0     0.185338     0.958390     0.849437    Uiso  ? H
   H109       1.0     0.958390     0.185338     0.150563    Uiso  ? H
   H110       1.0     0.041610     0.814662     0.150563    Uiso  ? H
   H111       1.0     0.185338     0.041610     0.150563    Uiso  ? H
   H112       1.0     0.814662     0.958390     0.150563    Uiso  ? H
   H113       1.0     0.652923     0.728360     0.407960    Uiso  ? H
   H114       1.0     0.347077     0.271640     0.407960    Uiso  ? H
   H115       1.0     0.271640     0.652923     0.407960    Uiso  ? H
   H116       1.0     0.728360     0.347077     0.407960    Uiso  ? H
   H117       1.0     0.347077     0.728360     0.592040    Uiso  ? H
   H118       1.0     0.652923     0.271640     0.592040    Uiso  ? H
   H119       1.0     0.728360     0.652923     0.592040    Uiso  ? H
   H120       1.0     0.271640     0.347077     0.592040    Uiso  ? H
   H121       1.0     0.152923     0.228360     0.907960    Uiso  ? H
   H122       1.0     0.847077     0.771640     0.907960    Uiso  ? H
   H123       1.0     0.771640     0.152923     0.907960    Uiso  ? H
   H124       1.0     0.228360     0.847077     0.907960    Uiso  ? H
   H125       1.0     0.847077     0.228360     0.092040    Uiso  ? H
   H126       1.0     0.152923     0.771640     0.092040    Uiso  ? H
   H127       1.0     0.228360     0.152923     0.092040    Uiso  ? H
   H128       1.0     0.771640     0.847077     0.092040    Uiso  ? H
   H129       1.0     0.560350     0.351820     0.949975    Uiso  ? H
   H130       1.0     0.439650     0.648180     0.949975    Uiso  ? H
   H131       1.0     0.648180     0.560350     0.949975    Uiso  ? H
   H132       1.0     0.351820     0.439650     0.949975    Uiso  ? H
   H133       1.0     0.439650     0.351820     0.050025    Uiso  ? H
   H134       1.0     0.560350     0.648180     0.050025    Uiso  ? H
   H135       1.0     0.351820     0.560350     0.050025    Uiso  ? H
   H136       1.0     0.648180     0.439650     0.050025    Uiso  ? H
   H137       1.0     0.060350     0.851820     0.449975    Uiso  ? H
   H138       1.0     0.939650     0.148180     0.449975    Uiso  ? H
   H139       1.0     0.148180     0.060350     0.449975    Uiso  ? H
   H140       1.0     0.851820     0.939650     0.449975    Uiso  ? H
   H141       1.0     0.939650     0.851820     0.550025    Uiso  ? H
   H142       1.0     0.060350     0.148180     0.550025    Uiso  ? H
   H143       1.0     0.851820     0.060350     0.550025    Uiso  ? H
   H144       1.0     0.148180     0.939650     0.550025    Uiso  ? H
   Al1        1.0     0.821509     0.821509     0.500000    Uiso  ? Al
   Al2        1.0     0.178491     0.178491     0.500000    Uiso  ? Al
   Al3        1.0     0.178491     0.821509     0.500000    Uiso  ? Al
   Al4        1.0     0.821509     0.178491     0.500000    Uiso  ? Al
   Al5        1.0     0.321509     0.321509     -0.000000    Uiso  ? Al
   Al6        1.0     0.678491     0.678491     -0.000000    Uiso  ? Al
   Al7        1.0     0.678491     0.321509     -0.000000    Uiso  ? Al
   Al8        1.0     0.321509     0.678491     -0.000000    Uiso  ? Al
   Al9        1.0     0.745703     0.000000     0.500000    Uiso  ? Al
   Al10       1.0     0.254297     0.000000     0.500000    Uiso  ? Al
   Al11       1.0     -0.000000     0.745703     0.500000    Uiso  ? Al
   Al12       1.0     -0.000000     0.254297     0.500000    Uiso  ? Al
   Al13       1.0     0.245703     0.500000     -0.000000    Uiso  ? Al
   Al14       1.0     0.754297     0.500000     -0.000000    Uiso  ? Al
   Al15       1.0     0.500000     0.245703     -0.000000    Uiso  ? Al
   Al16       1.0     0.500000     0.754297     -0.000000    Uiso  ? Al
